
     RDKit          3D

 67 69  0  0  0  0  0  0  0  0999 V2000
    7.6441    5.2321    0.6902 C   0  0  0  0  0  0  0  0  0  0  0  0
    6.4749    4.4430    0.5063 O   0  0  0  0  0  0  0  0  0  0  0  0
    6.0249    4.0423   -0.7566 C   0  0  0  0  0  0  0  0  0  0  0  0
    6.6641    4.3811   -1.7911 O   0  0  0  0  0  0  0  0  0  0  0  0
    4.7999    3.2208   -0.8762 C   0  0  0  0  0  0  0  0  0  0  0  0
    4.0827    2.8445    0.2713 C   0  0  0  0  0  0  0  0  0  0  0  0
    2.9253    2.0676    0.1635 C   0  0  0  0  0  0  0  0  0  0  0  0
    2.4693    1.6406   -1.0967 C   0  0  0  0  0  0  0  0  0  0  0  0
    1.3127    0.8679   -1.2750 O   0  0  0  0  0  0  0  0  0  0  0  0
    0.6269   -0.2240   -0.1265 P   0  0  0  0  0  0  0  0  0  0  0  0
    0.4671    0.4188    1.2328 O   0  0  0  0  0  0  0  0  0  0  0  0
   -0.9320   -0.6791   -0.6973 O   0  0  0  0  0  0  0  0  0  0  0  0
   -2.0065    0.2013   -0.8832 C   0  0  0  0  0  0  0  0  0  0  0  0
   -1.8988    1.5923   -0.6970 C   0  0  0  0  0  0  0  0  0  0  0  0
   -3.0087    2.4189   -0.8956 C   0  0  0  0  0  0  0  0  0  0  0  0
   -4.2453    1.8737   -1.2835 C   0  0  0  0  0  0  0  0  0  0  0  0
   -5.4231    2.7446   -1.4938 C   0  0  0  0  0  0  0  0  0  0  0  0
   -5.3269    3.9919   -1.3257 O   0  0  0  0  0  0  0  0  0  0  0  0
   -6.6452    2.1829   -1.8796 O   0  0  0  0  0  0  0  0  0  0  0  0
   -7.8143    2.9634   -2.0977 C   0  0  0  0  0  0  0  0  0  0  0  0
   -4.3474    0.4851   -1.4697 C   0  0  0  0  0  0  0  0  0  0  0  0
   -3.2366   -0.3394   -1.2716 C   0  0  0  0  0  0  0  0  0  0  0  0
    1.6345   -1.7504    0.0037 C   0  0  0  0  0  0  0  0  0  0  0  0
    2.9190   -1.5357    0.8019 C   0  0  0  0  0  0  0  0  0  0  0  0
    2.6097   -2.0184    2.2154 C   0  0  0  0  0  0  0  0  0  0  0  0
    1.4557   -3.0017    2.0695 C   0  0  0  0  0  0  0  0  0  0  0  0
    0.8947   -2.7585    0.7496 N   0  0  0  0  0  0  0  0  0  0  0  0
   -0.1866   -3.5247    0.1851 C   0  0  0  0  0  0  0  0  0  0  0  0
   -0.3567   -3.5234   -1.0651 O   0  0  0  0  0  0  0  0  0  0  0  0
   -1.1660   -4.2567    1.0803 C   0  0  0  0  0  0  0  0  0  0  0  0
   -2.1759   -3.3060    1.7074 C   0  0  0  0  0  0  0  0  0  0  0  0
   -3.4089   -4.1613    1.9323 C   0  0  0  0  0  0  0  0  0  0  0  0
   -3.1416   -5.4660    1.1866 C   0  0  0  0  0  0  0  0  0  0  0  0
   -1.9384   -5.2838    0.3754 N   0  0  0  0  0  0  0  0  0  0  0  0
    3.1743    2.0322   -2.2401 C   0  0  0  0  0  0  0  0  0  0  0  0
    4.3310    2.8093   -2.1354 C   0  0  0  0  0  0  0  0  0  0  0  0
    0.6878    0.0000    0.0000 Cl  0  0  0  0  0  0  0  0  0  0  0  0
    8.5315    4.6951    0.2930 H   0  0  0  0  0  0  0  0  0  0  0  0
    7.7916    5.4179    1.7738 H   0  0  0  0  0  0  0  0  0  0  0  0
    7.5307    6.2067    0.1700 H   0  0  0  0  0  0  0  0  0  0  0  0
    4.4116    3.1546    1.2553 H   0  0  0  0  0  0  0  0  0  0  0  0
    2.3953    1.8221    1.0684 H   0  0  0  0  0  0  0  0  0  0  0  0
   -0.9656    2.0499   -0.4019 H   0  0  0  0  0  0  0  0  0  0  0  0
   -2.8975    3.4855   -0.7453 H   0  0  0  0  0  0  0  0  0  0  0  0
   -7.6350    3.6975   -2.9116 H   0  0  0  0  0  0  0  0  0  0  0  0
   -8.0944    3.4974   -1.1651 H   0  0  0  0  0  0  0  0  0  0  0  0
   -8.6487    2.2951   -2.3938 H   0  0  0  0  0  0  0  0  0  0  0  0
   -5.2850    0.0332   -1.7681 H   0  0  0  0  0  0  0  0  0  0  0  0
   -3.3329   -1.4082   -1.4174 H   0  0  0  0  0  0  0  0  0  0  0  0
    1.8788   -2.1199   -1.0160 H   0  0  0  0  0  0  0  0  0  0  0  0
    3.7226   -2.1739    0.3724 H   0  0  0  0  0  0  0  0  0  0  0  0
    3.2753   -0.4886    0.8009 H   0  0  0  0  0  0  0  0  0  0  0  0
    2.2900   -1.1550    2.8395 H   0  0  0  0  0  0  0  0  0  0  0  0
    3.4969   -2.4982    2.6825 H   0  0  0  0  0  0  0  0  0  0  0  0
    1.8303   -4.0466    2.1294 H   0  0  0  0  0  0  0  0  0  0  0  0
    0.6932   -2.8238    2.8574 H   0  0  0  0  0  0  0  0  0  0  0  0
   -0.5975   -4.7637    1.8913 H   0  0  0  0  0  0  0  0  0  0  0  0
   -1.7958   -2.8825    2.6622 H   0  0  0  0  0  0  0  0  0  0  0  0
   -2.4242   -2.4750    1.0096 H   0  0  0  0  0  0  0  0  0  0  0  0
   -3.5577   -4.3586    3.0166 H   0  0  0  0  0  0  0  0  0  0  0  0
   -4.3120   -3.6550    1.5262 H   0  0  0  0  0  0  0  0  0  0  0  0
   -4.0113   -5.7453    0.5502 H   0  0  0  0  0  0  0  0  0  0  0  0
   -2.9650   -6.2886    1.9138 H   0  0  0  0  0  0  0  0  0  0  0  0
   -2.2606   -4.9088   -0.5484 H   0  0  0  0  0  0  0  0  0  0  0  0
    2.8268    1.7242   -3.2182 H   0  0  0  0  0  0  0  0  0  0  0  0
    4.8565    3.0873   -3.0404 H   0  0  0  0  0  0  0  0  0  0  0  0
   -0.6878    0.0000    0.0000 H   0  0  0  0  0  0  0  0  0  0  0  0
  1  2  1  0
  2  3  1  0
  3  4  2  0
  3  5  1  0
  5  6  2  0
  6  7  1  0
  7  8  2  0
  8  9  1  0
  9 10  1  0
 10 11  2  0
 10 12  1  0
 12 13  1  0
 13 14  2  0
 14 15  1  0
 15 16  2  0
 16 17  1  0
 17 18  2  0
 17 19  1  0
 19 20  1  0
 16 21  1  0
 21 22  2  0
 10 23  1  0
 23 24  1  0
 24 25  1  0
 25 26  1  0
 26 27  1  0
 27 28  1  0
 28 29  2  0
 28 30  1  0
 30 31  1  0
 31 32  1  0
 32 33  1  0
 33 34  1  0
  8 35  1  0
 35 36  2  0
 36  5  1  0
 22 13  1  0
 27 23  1  0
 34 30  1  0
  1 38  1  0
  1 39  1  0
  1 40  1  0
  6 41  1  0
  7 42  1  0
 14 43  1  0
 15 44  1  0
 20 45  1  0
 20 46  1  0
 20 47  1  0
 21 48  1  0
 22 49  1  0
 23 50  1  0
 24 51  1  0
 24 52  1  0
 25 53  1  0
 25 54  1  0
 26 55  1  0
 26 56  1  0
 30 57  1  0
 31 58  1  0
 31 59  1  0
 32 60  1  0
 32 61  1  0
 33 62  1  0
 33 63  1  0
 34 64  1  0
 35 65  1  0
 36 66  1  0
 37 67  1  0
M  END
$$$$
