
     RDKit          3D

 40 42  0  0  0  0  0  0  0  0999 V2000
    0.0315   -3.1519   -1.0803 C   0  0  0  0  0  0  0  0  0  0  0  0
   -0.0287   -1.7311   -0.5981 C   0  0  0  0  0  0  0  0  0  0  0  0
    1.1298   -1.0198   -0.5607 N   0  0  0  0  0  0  0  0  0  0  0  0
    1.1930    0.2681   -0.1343 C   0  0  0  0  0  0  0  0  0  0  0  0
    2.4942    0.9720   -0.1198 C   0  0  0  0  0  0  0  0  0  0  0  0
    2.5601    2.1622    0.2943 O   0  0  0  0  0  0  0  0  0  0  0  0
    3.6858    0.3114   -0.5710 N   0  0  0  0  0  0  0  0  0  0  0  0
    4.9746    0.9972   -0.5891 C   0  0  0  0  0  0  0  0  0  0  0  0
    5.6180    1.0998    0.7835 C   0  0  0  0  0  0  0  0  0  0  0  0
    6.1528    0.1059   -0.2356 C   0  0  0  0  0  0  0  0  0  0  0  0
    0.0220    0.9037    0.2939 C   0  0  0  0  0  0  0  0  0  0  0  0
   -1.1973    0.2168    0.2652 C   0  0  0  0  0  0  0  0  0  0  0  0
   -2.4038    0.9231    0.7382 C   0  0  0  0  0  0  0  0  0  0  0  0
   -2.6677    1.0109    2.1133 C   0  0  0  0  0  0  0  0  0  0  0  0
   -3.8054    1.6840    2.5683 C   0  0  0  0  0  0  0  0  0  0  0  0
   -4.6808    2.2779    1.6540 C   0  0  0  0  0  0  0  0  0  0  0  0
   -5.7834    2.9304    2.0972 F   0  0  0  0  0  0  0  0  0  0  0  0
   -4.4178    2.2011    0.2828 C   0  0  0  0  0  0  0  0  0  0  0  0
   -3.2809    1.5285   -0.1776 C   0  0  0  0  0  0  0  0  0  0  0  0
   -3.0356    1.4642   -1.5110 F   0  0  0  0  0  0  0  0  0  0  0  0
   -1.2435   -1.1196   -0.2011 C   0  0  0  0  0  0  0  0  0  0  0  0
   -2.5414   -1.9055   -0.1915 C   0  0  0  0  0  0  0  0  0  0  0  0
   -2.6522   -2.6692    1.0467 N   0  0  0  0  0  0  0  0  0  0  0  0
   -0.4421   -3.8307   -0.3407 H   0  0  0  0  0  0  0  0  0  0  0  0
    1.0867   -3.4726   -1.2145 H   0  0  0  0  0  0  0  0  0  0  0  0
   -0.4864   -3.2404   -2.0580 H   0  0  0  0  0  0  0  0  0  0  0  0
    3.6263   -0.6454   -0.9862 H   0  0  0  0  0  0  0  0  0  0  0  0
    5.1319    1.8455   -1.2883 H   0  0  0  0  0  0  0  0  0  0  0  0
    6.2607    1.9944    0.9229 H   0  0  0  0  0  0  0  0  0  0  0  0
    5.0510    0.6321    1.6170 H   0  0  0  0  0  0  0  0  0  0  0  0
    5.9071   -0.9528   -0.0044 H   0  0  0  0  0  0  0  0  0  0  0  0
    7.1131    0.4102   -0.7024 H   0  0  0  0  0  0  0  0  0  0  0  0
    0.0517    1.9279    0.6476 H   0  0  0  0  0  0  0  0  0  0  0  0
   -1.9955    0.5542    2.8295 H   0  0  0  0  0  0  0  0  0  0  0  0
   -4.0073    1.7453    3.6299 H   0  0  0  0  0  0  0  0  0  0  0  0
   -5.0948    2.6639   -0.4238 H   0  0  0  0  0  0  0  0  0  0  0  0
   -2.5794   -2.5988   -1.0580 H   0  0  0  0  0  0  0  0  0  0  0  0
   -3.4248   -1.2419   -0.3048 H   0  0  0  0  0  0  0  0  0  0  0  0
   -2.8048   -1.9969    1.8333 H   0  0  0  0  0  0  0  0  0  0  0  0
   -3.5168   -3.2540    0.9844 H   0  0  0  0  0  0  0  0  0  0  0  0
  1  2  1  0
  2  3  2  0
  3  4  1  0
  4  5  1  0
  5  6  2  0
  5  7  1  0
  7  8  1  0
  8  9  1  0
  9 10  1  0
  4 11  2  0
 11 12  1  0
 12 13  1  0
 13 14  2  0
 14 15  1  0
 15 16  2  0
 16 17  1  0
 16 18  1  0
 18 19  2  0
 19 20  1  0
 12 21  2  0
 21 22  1  0
 22 23  1  0
 21  2  1  0
 10  8  1  0
 19 13  1  0
  1 24  1  0
  1 25  1  0
  1 26  1  0
  7 27  1  0
  8 28  1  0
  9 29  1  0
  9 30  1  0
 10 31  1  0
 10 32  1  0
 11 33  1  0
 14 34  1  0
 15 35  1  0
 18 36  1  0
 22 37  1  0
 22 38  1  0
 23 39  1  0
 23 40  1  0
M  END
$$$$
