
     RDKit          3D

 48 51  0  0  0  0  0  0  0  0999 V2000
   -3.3702    3.7039    1.2325 C   0  0  0  0  0  0  0  0  0  0  0  0
   -2.0717    3.5558    0.5838 N   0  0  0  0  0  0  0  0  0  0  0  0
   -1.3815    4.5069   -0.0953 C   0  0  0  0  0  0  0  0  0  0  0  0
   -0.1968    4.0595   -0.5918 N   0  0  0  0  0  0  0  0  0  0  0  0
   -0.1818    2.7761   -0.1898 C   0  0  0  0  0  0  0  0  0  0  0  0
    0.7965    1.8757   -0.4190 N   0  0  0  0  0  0  0  0  0  0  0  0
    0.6552    0.6041    0.0661 C   0  0  0  0  0  0  0  0  0  0  0  0
    1.7302   -0.3251   -0.1432 N   0  0  0  0  0  0  0  0  0  0  0  0
    2.6495   -0.6176    0.9591 C   0  0  0  0  0  0  0  0  0  0  0  0
    3.9962    0.1015    0.7528 C   0  0  0  0  0  0  0  0  0  0  0  0
    4.2168    0.5803   -0.6960 C   0  0  0  0  0  0  0  0  0  0  0  0
    3.6502   -0.3989   -1.7416 C   0  0  1  0  0  0  0  0  0  0  0  0
    4.4331   -1.6386   -1.7529 N   0  0  0  0  0  0  0  0  0  0  0  0
    2.1397   -0.6735   -1.5101 C   0  0  0  0  0  0  0  0  0  0  0  0
   -0.4868    0.2410    0.7710 N   0  0  0  0  0  0  0  0  0  0  0  0
   -0.7008   -1.1499    1.2230 C   0  0  0  0  0  0  0  0  0  0  0  0
   -1.7747   -1.8236    0.3918 C   0  0  0  0  0  0  0  0  0  0  0  0
   -1.5506   -1.9908   -0.9865 C   0  0  0  0  0  0  0  0  0  0  0  0
   -2.5103   -2.6017   -1.7965 C   0  0  0  0  0  0  0  0  0  0  0  0
   -2.2799   -2.7518   -3.1242 F   0  0  0  0  0  0  0  0  0  0  0  0
   -3.7059   -3.0576   -1.2410 C   0  0  0  0  0  0  0  0  0  0  0  0
   -3.9448   -2.9056    0.1260 C   0  0  0  0  0  0  0  0  0  0  0  0
   -2.9894   -2.2938    0.9504 C   0  0  0  0  0  0  0  0  0  0  0  0
   -3.2837   -2.1649    2.3575 C   0  0  0  0  0  0  0  0  0  0  0  0
   -3.5206   -2.0613    3.4855 N   0  0  0  0  0  0  0  0  0  0  0  0
   -1.4682    1.1813    1.0128 C   0  0  0  0  0  0  0  0  0  0  0  0
   -2.5064    0.8895    1.6673 O   0  0  0  0  0  0  0  0  0  0  0  0
   -1.2908    2.4660    0.5116 C   0  0  0  0  0  0  0  0  0  0  0  0
   -3.7491    4.7409    1.1102 H   0  0  0  0  0  0  0  0  0  0  0  0
   -3.2743    3.4856    2.3167 H   0  0  0  0  0  0  0  0  0  0  0  0
   -4.0991    3.0021    0.7757 H   0  0  0  0  0  0  0  0  0  0  0  0
   -1.7336    5.5214   -0.2313 H   0  0  0  0  0  0  0  0  0  0  0  0
    2.8167   -1.7154    1.0029 H   0  0  0  0  0  0  0  0  0  0  0  0
    2.2070   -0.3167    1.9347 H   0  0  0  0  0  0  0  0  0  0  0  0
    4.8213   -0.5848    1.0434 H   0  0  0  0  0  0  0  0  0  0  0  0
    4.0508    0.9835    1.4275 H   0  0  0  0  0  0  0  0  0  0  0  0
    3.7174    1.5656   -0.8278 H   0  0  0  0  0  0  0  0  0  0  0  0
    5.3030    0.7366   -0.8742 H   0  0  0  0  0  0  0  0  0  0  0  0
    3.7660    0.0825   -2.7390 H   0  0  0  0  0  0  0  0  0  0  0  0
    4.1443   -2.2056   -2.5832 H   0  0  0  0  0  0  0  0  0  0  0  0
    4.2143   -2.2058   -0.9027 H   0  0  0  0  0  0  0  0  0  0  0  0
    1.5484   -0.0845   -2.2463 H   0  0  0  0  0  0  0  0  0  0  0  0
    1.9004   -1.7425   -1.6961 H   0  0  0  0  0  0  0  0  0  0  0  0
    0.2175   -1.7638    1.1449 H   0  0  0  0  0  0  0  0  0  0  0  0
   -0.9456   -1.1446    2.3055 H   0  0  0  0  0  0  0  0  0  0  0  0
   -0.6307   -1.6431   -1.4364 H   0  0  0  0  0  0  0  0  0  0  0  0
   -4.4493   -3.5310   -1.8694 H   0  0  0  0  0  0  0  0  0  0  0  0
   -4.8779   -3.2672    0.5419 H   0  0  0  0  0  0  0  0  0  0  0  0
  1  2  1  0
  2  3  1  0
  3  4  2  0
  4  5  1  0
  5  6  1  0
  6  7  2  0
  7  8  1  0
  8  9  1  0
  9 10  1  0
 10 11  1  0
 11 12  1  0
 12 13  1  0
 12 14  1  0
  7 15  1  0
 15 16  1  0
 16 17  1  0
 17 18  2  0
 18 19  1  0
 19 20  1  0
 19 21  2  0
 21 22  1  0
 22 23  2  0
 23 24  1  0
 24 25  3  0
 15 26  1  0
 26 27  2  0
 26 28  1  0
 28  2  1  0
 28  5  2  0
 14  8  1  0
 23 17  1  0
  1 29  1  0
  1 30  1  0
  1 31  1  0
  3 32  1  0
  9 33  1  0
  9 34  1  0
 10 35  1  0
 10 36  1  0
 11 37  1  0
 11 38  1  0
 12 39  1  6
 13 40  1  0
 13 41  1  0
 14 42  1  0
 14 43  1  0
 16 44  1  0
 16 45  1  0
 18 46  1  0
 21 47  1  0
 22 48  1  0
M  END
$$$$
