
     RDKit          3D

 34 35  0  0  0  0  0  0  0  0999 V2000
   -0.0366   -1.9921    0.8390 O   0  0  0  0  0  0  0  0  0  0  0  0
    0.1623   -0.7571    0.6727 C   0  0  0  0  0  0  0  0  0  0  0  0
    1.5801   -0.2445    0.6050 C   0  0  2  0  0  0  0  0  0  0  0  0
    2.0734   -0.1824   -0.8364 C   0  0  0  0  0  0  0  0  0  0  0  0
    3.5506   -0.4997   -0.7346 C   0  0  1  0  0  0  0  0  0  0  0  0
    4.3207    0.6735   -0.6181 O   0  0  0  0  0  0  0  0  0  0  0  0
    3.6642   -1.3679    0.5145 C   0  0  0  0  0  0  0  0  0  0  0  0
    2.4846   -1.1292    1.3509 N   0  0  0  0  0  0  0  0  0  0  0  0
   -0.9632    0.1217    0.4722 N   0  0  0  0  0  0  0  0  0  0  0  0
   -0.8667    1.5739    0.4375 C   0  0  0  0  0  0  0  0  0  0  0  0
   -2.2897    2.0822    0.2155 C   0  0  1  0  0  0  0  0  0  0  0  0
   -2.4653    2.4168   -1.1370 O   0  0  0  0  0  0  0  0  0  0  0  0
   -3.1968    0.9065    0.5905 C   0  0  0  0  0  0  0  0  0  0  0  0
   -2.3412   -0.3484    0.4080 C   0  0  1  0  0  0  0  0  0  0  0  0
   -2.6327   -1.0644   -1.0018 B   0  0  0  0  0  0  0  0  0  0  0  0
   -3.9373   -1.6732   -1.2489 O   0  0  0  0  0  0  0  0  0  0  0  0
   -1.6218   -1.0686   -2.0580 O   0  0  0  0  0  0  0  0  0  0  0  0
    1.6296    0.7784    1.0428 H   0  0  0  0  0  0  0  0  0  0  0  0
    1.8925    0.8154   -1.2926 H   0  0  0  0  0  0  0  0  0  0  0  0
    1.5786   -0.9609   -1.4608 H   0  0  0  0  0  0  0  0  0  0  0  0
    3.8918   -1.0595   -1.6329 H   0  0  0  0  0  0  0  0  0  0  0  0
    4.0264    1.1573    0.1982 H   0  0  0  0  0  0  0  0  0  0  0  0
    4.6051   -1.1563    1.0714 H   0  0  0  0  0  0  0  0  0  0  0  0
    3.6740   -2.4395    0.2200 H   0  0  0  0  0  0  0  0  0  0  0  0
    2.7852   -0.6442    2.2296 H   0  0  0  0  0  0  0  0  0  0  0  0
   -0.4803    1.9426    1.4125 H   0  0  0  0  0  0  0  0  0  0  0  0
   -0.1895    1.9010   -0.3809 H   0  0  0  0  0  0  0  0  0  0  0  0
   -2.4912    2.9679    0.8623 H   0  0  0  0  0  0  0  0  0  0  0  0
   -3.3080    2.9387   -1.1926 H   0  0  0  0  0  0  0  0  0  0  0  0
   -4.1398    0.8967   -0.0012 H   0  0  0  0  0  0  0  0  0  0  0  0
   -3.4722    0.9993    1.6645 H   0  0  0  0  0  0  0  0  0  0  0  0
   -2.5414   -1.0670    1.2327 H   0  0  0  0  0  0  0  0  0  0  0  0
   -3.8349   -2.6127   -0.9526 H   0  0  0  0  0  0  0  0  0  0  0  0
   -1.1105   -1.9045   -1.9137 H   0  0  0  0  0  0  0  0  0  0  0  0
  1  2  2  0
  2  3  1  0
  3  4  1  0
  4  5  1  0
  5  6  1  0
  5  7  1  0
  7  8  1  0
  2  9  1  0
  9 10  1  0
 10 11  1  0
 11 12  1  0
 11 13  1  0
 13 14  1  0
 14 15  1  0
 15 16  1  0
 15 17  1  0
  8  3  1  0
 14  9  1  0
  3 18  1  1
  4 19  1  0
  4 20  1  0
  5 21  1  6
  6 22  1  0
  7 23  1  0
  7 24  1  0
  8 25  1  0
 10 26  1  0
 10 27  1  0
 11 28  1  1
 12 29  1  0
 13 30  1  0
 13 31  1  0
 14 32  1  1
 16 33  1  0
 17 34  1  0
M  END
$$$$
