
     RDKit          3D

 38 39  0  0  0  0  0  0  0  0999 V2000
    2.0945    2.3214   -2.5511 N   0  0  0  0  0  0  0  0  0  0  0  0
    1.6986    1.1914   -1.7156 C   0  0  0  0  0  0  0  0  0  0  0  0
    2.6600    1.0154   -0.5701 C   0  0  0  0  0  0  0  0  0  0  0  0
    3.2179    2.0350   -0.0793 O   0  0  0  0  0  0  0  0  0  0  0  0
    2.9102   -0.2778    0.0172 N   0  0  0  0  0  0  0  0  0  0  0  0
    3.9762   -0.4923    0.9818 C   0  0  0  0  0  0  0  0  0  0  0  0
    4.1200   -2.0019    1.1127 C   0  0  0  0  0  0  0  0  0  0  0  0
    2.8234   -2.5930    0.5685 C   0  0  0  0  0  0  0  0  0  0  0  0
    2.2246   -1.5156   -0.3397 C   0  0  1  0  0  0  0  0  0  0  0  0
    0.7411   -1.3991   -0.1291 C   0  0  0  0  0  0  0  0  0  0  0  0
   -0.0444   -2.0006   -0.9110 O   0  0  0  0  0  0  0  0  0  0  0  0
    0.2545   -0.7045    0.9877 O   0  0  0  0  0  0  0  0  0  0  0  0
   -1.0694   -0.2758    1.1649 C   0  0  0  0  0  0  0  0  0  0  0  0
   -1.8699    0.0516    0.1395 C   0  0  0  0  0  0  0  0  0  0  0  0
   -3.2665    0.5217    0.3058 C   0  0  0  0  0  0  0  0  0  0  0  0
   -4.0351    0.2211    1.4495 C   0  0  0  0  0  0  0  0  0  0  0  0
   -5.3532    0.6768    1.5544 C   0  0  0  0  0  0  0  0  0  0  0  0
   -5.9214    1.4261    0.5221 C   0  0  0  0  0  0  0  0  0  0  0  0
   -5.1749    1.7160   -0.6218 C   0  0  0  0  0  0  0  0  0  0  0  0
   -3.8570    1.2626   -0.7328 C   0  0  0  0  0  0  0  0  0  0  0  0
    1.3595    2.4481   -3.2842 H   0  0  0  0  0  0  0  0  0  0  0  0
    2.9748    2.0623   -3.0537 H   0  0  0  0  0  0  0  0  0  0  0  0
    1.6578    0.2732   -2.3398 H   0  0  0  0  0  0  0  0  0  0  0  0
    0.6865    1.3812   -1.2993 H   0  0  0  0  0  0  0  0  0  0  0  0
    4.9272   -0.0439    0.6197 H   0  0  0  0  0  0  0  0  0  0  0  0
    3.6915   -0.0396    1.9562 H   0  0  0  0  0  0  0  0  0  0  0  0
    4.2919   -2.3021    2.1692 H   0  0  0  0  0  0  0  0  0  0  0  0
    4.9742   -2.3499    0.4909 H   0  0  0  0  0  0  0  0  0  0  0  0
    3.0177   -3.5312    0.0044 H   0  0  0  0  0  0  0  0  0  0  0  0
    2.1503   -2.8251    1.4249 H   0  0  0  0  0  0  0  0  0  0  0  0
    2.4458   -1.7619   -1.4019 H   0  0  0  0  0  0  0  0  0  0  0  0
   -1.4143   -0.1619    2.1825 H   0  0  0  0  0  0  0  0  0  0  0  0
   -1.4645    0.0467   -0.8639 H   0  0  0  0  0  0  0  0  0  0  0  0
   -3.6361   -0.3824    2.2529 H   0  0  0  0  0  0  0  0  0  0  0  0
   -5.9375    0.4419    2.4349 H   0  0  0  0  0  0  0  0  0  0  0  0
   -6.9421    1.7763    0.6056 H   0  0  0  0  0  0  0  0  0  0  0  0
   -5.6178    2.2918   -1.4242 H   0  0  0  0  0  0  0  0  0  0  0  0
   -3.2941    1.4979   -1.6281 H   0  0  0  0  0  0  0  0  0  0  0  0
  1  2  1  0
  2  3  1  0
  3  4  2  0
  3  5  1  0
  5  6  1  0
  6  7  1  0
  7  8  1  0
  8  9  1  0
  9 10  1  0
 10 11  2  0
 10 12  1  0
 12 13  1  0
 13 14  2  0
 14 15  1  0
 15 16  2  0
 16 17  1  0
 17 18  2  0
 18 19  1  0
 19 20  2  0
  9  5  1  0
 20 15  1  0
  1 21  1  0
  1 22  1  0
  2 23  1  0
  2 24  1  0
  6 25  1  0
  6 26  1  0
  7 27  1  0
  7 28  1  0
  8 29  1  0
  8 30  1  0
  9 31  1  6
 13 32  1  0
 14 33  1  0
 16 34  1  0
 17 35  1  0
 18 36  1  0
 19 37  1  0
 20 38  1  0
M  END
$$$$
