
     RDKit          3D

 57 58  0  0  0  0  0  0  0  0999 V2000
    1.0060    5.9099   -0.1482 C   0  0  0  0  0  0  0  0  0  0  0  0
    0.7481    4.4380   -0.0195 C   0  0  0  0  0  0  0  0  0  0  0  0
    0.3004    3.9026    1.1982 C   0  0  0  0  0  0  0  0  0  0  0  0
    0.0246    2.5367    1.3086 C   0  0  0  0  0  0  0  0  0  0  0  0
    0.1760    1.6947    0.1979 C   0  0  0  0  0  0  0  0  0  0  0  0
   -0.1085    0.2436    0.3171 C   0  0  0  0  0  0  0  0  0  0  0  0
   -1.4540   -0.2266    0.3271 C   0  0  0  0  0  0  0  0  0  0  0  0
   -2.5974    0.7677    0.1454 C   0  0  0  0  0  0  0  0  0  0  0  0
   -2.4508    1.5010   -1.1095 N   0  0  0  0  0  0  0  0  0  0  0  0
   -1.6790   -1.6206    0.5256 C   0  0  0  0  0  0  0  0  0  0  0  0
   -3.0442   -2.2638    0.6486 C   0  0  0  0  0  0  0  0  0  0  0  0
   -3.4737   -2.9876   -0.6462 C   0  0  0  0  0  0  0  0  0  0  0  0
   -3.6417   -2.0193   -1.8235 C   0  0  0  0  0  0  0  0  0  0  0  0
   -4.7781   -3.7600   -0.4122 C   0  0  0  0  0  0  0  0  0  0  0  0
   -0.6167   -2.4616    0.6197 N   0  0  0  0  0  0  0  0  0  0  0  0
    0.6692   -2.0445    0.5692 C   0  0  0  0  0  0  0  0  0  0  0  0
    1.6983   -2.9829    0.6763 C   0  0  0  0  0  0  0  0  0  0  0  0
    3.0317   -2.5740    0.6557 C   0  0  0  0  0  0  0  0  0  0  0  0
    3.3575   -1.2129    0.5340 C   0  0  0  0  0  0  0  0  0  0  0  0
    4.7711   -0.7588    0.5181 C   0  0  0  0  0  0  0  0  0  0  0  0
    5.1389    0.5371    0.3914 N   0  0  0  0  0  0  0  0  0  0  0  0
    6.4398    0.5355    0.4205 O   0  0  0  0  0  0  0  0  0  0  0  0
    6.8655   -0.6932    0.5580 C   0  0  0  0  0  0  0  0  0  0  0  0
    8.0800   -1.0183    0.6191 O   0  0  0  0  0  0  0  0  0  0  0  0
    5.8495   -1.5661    0.6262 N   0  0  0  0  0  0  0  0  0  0  0  0
    2.3177   -0.2708    0.4264 C   0  0  0  0  0  0  0  0  0  0  0  0
    0.9636   -0.6756    0.4325 C   0  0  0  0  0  0  0  0  0  0  0  0
    0.6125    2.2302   -1.0232 C   0  0  0  0  0  0  0  0  0  0  0  0
    0.8887    3.5958   -1.1333 C   0  0  0  0  0  0  0  0  0  0  0  0
    0.6878    0.0000    0.0000 Cl  0  0  0  0  0  0  0  0  0  0  0  0
    0.6878    0.0000    0.0000 Cl  0  0  0  0  0  0  0  0  0  0  0  0
    1.7912    6.1049   -0.9095 H   0  0  0  0  0  0  0  0  0  0  0  0
    1.3531    6.3329    0.8186 H   0  0  0  0  0  0  0  0  0  0  0  0
    0.0703    6.4231   -0.4531 H   0  0  0  0  0  0  0  0  0  0  0  0
    0.1670    4.5418    2.0622 H   0  0  0  0  0  0  0  0  0  0  0  0
   -0.3097    2.1347    2.2572 H   0  0  0  0  0  0  0  0  0  0  0  0
   -3.5997    0.3072    0.1535 H   0  0  0  0  0  0  0  0  0  0  0  0
   -2.5812    1.4851    0.9933 H   0  0  0  0  0  0  0  0  0  0  0  0
   -2.6314    0.8439   -1.9018 H   0  0  0  0  0  0  0  0  0  0  0  0
   -3.2002    2.2294   -1.1464 H   0  0  0  0  0  0  0  0  0  0  0  0
   -2.9693   -3.0258    1.4559 H   0  0  0  0  0  0  0  0  0  0  0  0
   -3.8303   -1.5742    1.0077 H   0  0  0  0  0  0  0  0  0  0  0  0
   -2.6879   -3.7277   -0.9176 H   0  0  0  0  0  0  0  0  0  0  0  0
   -2.6696   -1.5459   -2.0718 H   0  0  0  0  0  0  0  0  0  0  0  0
   -4.3877   -1.2323   -1.5834 H   0  0  0  0  0  0  0  0  0  0  0  0
   -3.9838   -2.5690   -2.7262 H   0  0  0  0  0  0  0  0  0  0  0  0
   -5.0646   -4.3181   -1.3291 H   0  0  0  0  0  0  0  0  0  0  0  0
   -5.6022   -3.0645   -0.1431 H   0  0  0  0  0  0  0  0  0  0  0  0
   -4.6470   -4.4962    0.4094 H   0  0  0  0  0  0  0  0  0  0  0  0
    1.4656   -4.0358    0.7808 H   0  0  0  0  0  0  0  0  0  0  0  0
    3.7984   -3.3304    0.7404 H   0  0  0  0  0  0  0  0  0  0  0  0
    5.9057   -2.6021    0.7363 H   0  0  0  0  0  0  0  0  0  0  0  0
    2.5735    0.7767    0.3411 H   0  0  0  0  0  0  0  0  0  0  0  0
    0.7318    1.5897   -1.8884 H   0  0  0  0  0  0  0  0  0  0  0  0
    1.2130    3.9959   -2.0860 H   0  0  0  0  0  0  0  0  0  0  0  0
   -0.6878    0.0000    0.0000 H   0  0  0  0  0  0  0  0  0  0  0  0
   -0.6878    0.0000    0.0000 H   0  0  0  0  0  0  0  0  0  0  0  0
  1  2  1  0
  2  3  2  0
  3  4  1  0
  4  5  2  0
  5  6  1  0
  6  7  2  0
  7  8  1  0
  8  9  1  0
  7 10  1  0
 10 11  1  0
 11 12  1  0
 12 13  1  0
 12 14  1  0
 10 15  2  0
 15 16  1  0
 16 17  2  0
 17 18  1  0
 18 19  2  0
 19 20  1  0
 20 21  2  0
 21 22  1  0
 22 23  1  0
 23 24  2  0
 23 25  1  0
 19 26  1  0
 26 27  2  0
  5 28  1  0
 28 29  2  0
 29  2  1  0
 27  6  1  0
 27 16  1  0
 25 20  1  0
  1 32  1  0
  1 33  1  0
  1 34  1  0
  3 35  1  0
  4 36  1  0
  8 37  1  0
  8 38  1  0
  9 39  1  0
  9 40  1  0
 11 41  1  0
 11 42  1  0
 12 43  1  0
 13 44  1  0
 13 45  1  0
 13 46  1  0
 14 47  1  0
 14 48  1  0
 14 49  1  0
 17 50  1  0
 18 51  1  0
 25 52  1  0
 26 53  1  0
 28 54  1  0
 29 55  1  0
 30 56  1  0
 31 57  1  0
M  END
$$$$
