
     RDKit          3D

 53 57  0  0  0  0  0  0  0  0999 V2000
    8.2983    1.3018    0.2982 N   0  0  0  0  0  0  0  0  0  0  0  0
    6.9264    0.9898    0.0426 C   0  0  0  0  0  0  0  0  0  0  0  0
    6.5263    0.5565   -1.2269 C   0  0  0  0  0  0  0  0  0  0  0  0
    5.1860    0.2498   -1.4769 C   0  0  0  0  0  0  0  0  0  0  0  0
    4.2165    0.3825   -0.4656 C   0  0  0  0  0  0  0  0  0  0  0  0
    2.7720    0.0082   -0.7775 C   0  0  2  0  0  0  0  0  0  0  0  0
    1.6972    0.9380   -0.2063 C   0  0  0  0  0  0  0  0  0  0  0  0
    0.5278    0.0899   -0.0179 N   0  0  0  0  0  0  0  0  0  0  0  0
   -0.8076    0.5574    0.2670 C   0  0  0  0  0  0  0  0  0  0  0  0
   -1.8408   -0.3253    0.1912 N   0  0  0  0  0  0  0  0  0  0  0  0
   -3.1368    0.0174    0.4336 C   0  0  0  0  0  0  0  0  0  0  0  0
   -3.4429    1.3445    0.7969 C   0  0  0  0  0  0  0  0  0  0  0  0
   -2.3968    2.2776    0.8857 C   0  0  0  0  0  0  0  0  0  0  0  0
   -1.0809    1.8924    0.6245 C   0  0  0  0  0  0  0  0  0  0  0  0
   -0.0987    2.8189    0.7458 F   0  0  0  0  0  0  0  0  0  0  0  0
   -4.7761    1.6939    1.0729 C   0  0  0  0  0  0  0  0  0  0  0  0
   -5.0609    2.8821    1.3891 O   0  0  0  0  0  0  0  0  0  0  0  0
   -5.7854    0.7127    1.0028 C   0  0  0  0  0  0  0  0  0  0  0  0
   -7.2086    1.0233    1.3078 C   0  0  0  0  0  0  0  0  0  0  0  0
   -8.0878    0.1234    1.2206 O   0  0  0  0  0  0  0  0  0  0  0  0
   -7.5943    2.3048    1.6927 O   0  0  0  0  0  0  0  0  0  0  0  0
   -5.4233   -0.5964    0.6395 C   0  0  0  0  0  0  0  0  0  0  0  0
   -4.1323   -0.9183    0.3263 N   0  0  0  0  0  0  0  0  0  0  0  0
   -3.8100   -2.3155   -0.0086 C   0  0  0  0  0  0  0  0  0  0  0  0
   -4.6326   -2.9066   -1.1493 C   0  0  0  0  0  0  0  0  0  0  0  0
   -3.1906   -2.5032   -1.3893 C   0  0  0  0  0  0  0  0  0  0  0  0
    0.8226   -1.3220   -0.2315 C   0  0  0  0  0  0  0  0  0  0  0  0
    2.3436   -1.4176   -0.3689 C   0  0  2  0  0  0  0  0  0  0  0  0
    2.9287   -1.8656    0.8996 N   0  0  0  0  0  0  0  0  0  0  0  0
    4.6327    0.8023    0.8152 C   0  0  0  0  0  0  0  0  0  0  0  0
    5.9744    1.1077    1.0622 C   0  0  0  0  0  0  0  0  0  0  0  0
    8.6065    1.6233    1.2430 H   0  0  0  0  0  0  0  0  0  0  0  0
    9.0160    1.2141   -0.4555 H   0  0  0  0  0  0  0  0  0  0  0  0
    7.2536    0.4524   -2.0223 H   0  0  0  0  0  0  0  0  0  0  0  0
    4.9055   -0.0934   -2.4651 H   0  0  0  0  0  0  0  0  0  0  0  0
    2.6423    0.0575   -1.8842 H   0  0  0  0  0  0  0  0  0  0  0  0
    1.4753    1.7500   -0.9332 H   0  0  0  0  0  0  0  0  0  0  0  0
    1.9806    1.3796    0.7684 H   0  0  0  0  0  0  0  0  0  0  0  0
   -2.5921    3.3055    1.1663 H   0  0  0  0  0  0  0  0  0  0  0  0
   -8.5628    2.5170    1.9005 H   0  0  0  0  0  0  0  0  0  0  0  0
   -6.1851   -1.3670    0.6037 H   0  0  0  0  0  0  0  0  0  0  0  0
   -3.4774   -3.0000    0.8004 H   0  0  0  0  0  0  0  0  0  0  0  0
   -5.3642   -2.2285   -1.6385 H   0  0  0  0  0  0  0  0  0  0  0  0
   -4.7853   -4.0046   -1.0876 H   0  0  0  0  0  0  0  0  0  0  0  0
   -3.0828   -1.5850   -2.0058 H   0  0  0  0  0  0  0  0  0  0  0  0
   -2.4874   -3.3592   -1.4637 H   0  0  0  0  0  0  0  0  0  0  0  0
    0.3296   -1.6630   -1.1682 H   0  0  0  0  0  0  0  0  0  0  0  0
    0.4482   -1.9313    0.6206 H   0  0  0  0  0  0  0  0  0  0  0  0
    2.6109   -2.1472   -1.1660 H   0  0  0  0  0  0  0  0  0  0  0  0
    3.9610   -1.9830    0.7827 H   0  0  0  0  0  0  0  0  0  0  0  0
    2.7528   -1.1552    1.6464 H   0  0  0  0  0  0  0  0  0  0  0  0
    3.9357    0.8830    1.6361 H   0  0  0  0  0  0  0  0  0  0  0  0
    6.2730    1.4303    2.0518 H   0  0  0  0  0  0  0  0  0  0  0  0
  1  2  1  0
  2  3  2  0
  3  4  1  0
  4  5  2  0
  5  6  1  0
  6  7  1  0
  7  8  1  0
  8  9  1  0
  9 10  2  0
 10 11  1  0
 11 12  2  0
 12 13  1  0
 13 14  2  0
 14 15  1  0
 12 16  1  0
 16 17  2  0
 16 18  1  0
 18 19  1  0
 19 20  2  0
 19 21  1  0
 18 22  2  0
 22 23  1  0
 23 24  1  0
 24 25  1  0
 25 26  1  0
  8 27  1  0
 27 28  1  0
 28 29  1  0
  5 30  1  0
 30 31  2  0
 31  2  1  0
 28  6  1  0
 14  9  1  0
 26 24  1  0
 23 11  1  0
  1 32  1  0
  1 33  1  0
  3 34  1  0
  4 35  1  0
  6 36  1  6
  7 37  1  0
  7 38  1  0
 13 39  1  0
 21 40  1  0
 22 41  1  0
 24 42  1  0
 25 43  1  0
 25 44  1  0
 26 45  1  0
 26 46  1  0
 27 47  1  0
 27 48  1  0
 28 49  1  6
 29 50  1  0
 29 51  1  0
 30 52  1  0
 31 53  1  0
M  END
$$$$
