
     RDKit          3D

 47 49  0  0  0  0  0  0  0  0999 V2000
   -2.3383   -2.4352    1.1707 N   0  0  0  0  0  0  0  0  0  0  0  0
   -2.8582   -1.2403    0.4924 C   0  0  1  0  0  0  0  0  0  0  0  0
   -4.0032   -0.6132    1.2689 C   0  0  0  0  0  0  0  0  0  0  0  0
   -3.9158   -0.5301    2.5252 O   0  0  0  0  0  0  0  0  0  0  0  0
   -5.1628   -0.0644    0.6076 N   0  0  0  0  0  0  0  0  0  0  0  0
   -5.3170   -0.0222   -0.8411 C   0  0  0  0  0  0  0  0  0  0  0  0
   -6.5012    0.8738   -1.1617 C   0  0  0  0  0  0  0  0  0  0  0  0
   -7.6509    0.8097    0.2385 S   0  0  0  0  0  0  0  0  0  0  0  0
   -6.2794    0.4677    1.3772 C   0  0  0  0  0  0  0  0  0  0  0  0
   -1.7432   -0.2000    0.2060 C   0  0  1  0  0  0  0  0  0  0  0  0
   -1.0735    0.4151    1.4402 C   0  0  0  0  0  0  0  0  0  0  0  0
    0.3693    0.7224    1.0373 C   0  0  0  0  0  0  0  0  0  0  0  0
    0.5563    0.1986   -0.3896 C   0  0  1  0  0  0  0  0  0  0  0  0
    1.8042   -0.4780   -0.5438 O   0  0  0  0  0  0  0  0  0  0  0  0
    3.0374    0.1820   -0.5455 C   0  0  0  0  0  0  0  0  0  0  0  0
    3.0868    1.4397   -0.4560 O   0  0  0  0  0  0  0  0  0  0  0  0
    4.2383   -0.5866   -0.6956 N   0  0  0  0  0  0  0  0  0  0  0  0
    5.5650   -0.0600   -0.5214 C   0  0  0  0  0  0  0  0  0  0  0  0
    5.8442    0.9260    0.4438 C   0  0  0  0  0  0  0  0  0  0  0  0
    7.1488    1.4022    0.6081 C   0  0  0  0  0  0  0  0  0  0  0  0
    8.1859    0.8917   -0.1767 C   0  0  0  0  0  0  0  0  0  0  0  0
    7.9220   -0.1035   -1.1215 C   0  0  0  0  0  0  0  0  0  0  0  0
    8.9305   -0.6065   -1.8752 F   0  0  0  0  0  0  0  0  0  0  0  0
    6.6186   -0.5830   -1.2879 C   0  0  0  0  0  0  0  0  0  0  0  0
   -0.5988   -0.7595   -0.6315 C   0  0  0  0  0  0  0  0  0  0  0  0
   -2.1178   -2.2324    2.1712 H   0  0  0  0  0  0  0  0  0  0  0  0
   -3.0869   -3.1661    1.1698 H   0  0  0  0  0  0  0  0  0  0  0  0
   -3.2398   -1.5782   -0.4945 H   0  0  0  0  0  0  0  0  0  0  0  0
   -4.4055    0.3917   -1.3220 H   0  0  0  0  0  0  0  0  0  0  0  0
   -5.5055   -1.0496   -1.2209 H   0  0  0  0  0  0  0  0  0  0  0  0
   -6.1575    1.9231   -1.2865 H   0  0  0  0  0  0  0  0  0  0  0  0
   -7.0082    0.5426   -2.0924 H   0  0  0  0  0  0  0  0  0  0  0  0
   -6.6167   -0.2767    2.1292 H   0  0  0  0  0  0  0  0  0  0  0  0
   -5.9728    1.4058    1.8862 H   0  0  0  0  0  0  0  0  0  0  0  0
   -2.1953    0.6355   -0.3764 H   0  0  0  0  0  0  0  0  0  0  0  0
   -1.0664   -0.2821    2.3023 H   0  0  0  0  0  0  0  0  0  0  0  0
   -1.6039    1.3430    1.7478 H   0  0  0  0  0  0  0  0  0  0  0  0
    1.0706    0.2155    1.7368 H   0  0  0  0  0  0  0  0  0  0  0  0
    0.5624    1.8168    1.0735 H   0  0  0  0  0  0  0  0  0  0  0  0
    0.4843    1.0399   -1.1164 H   0  0  0  0  0  0  0  0  0  0  0  0
    4.1362   -1.5709   -1.0314 H   0  0  0  0  0  0  0  0  0  0  0  0
    5.0645    1.3091    1.0882 H   0  0  0  0  0  0  0  0  0  0  0  0
    7.3575    2.1612    1.3510 H   0  0  0  0  0  0  0  0  0  0  0  0
    9.1947    1.2615   -0.0457 H   0  0  0  0  0  0  0  0  0  0  0  0
    6.4253   -1.3559   -2.0214 H   0  0  0  0  0  0  0  0  0  0  0  0
   -0.8687   -0.8025   -1.7093 H   0  0  0  0  0  0  0  0  0  0  0  0
   -0.3154   -1.7778   -0.2847 H   0  0  0  0  0  0  0  0  0  0  0  0
  1  2  1  0
  2  3  1  0
  3  4  2  0
  3  5  1  0
  5  6  1  0
  6  7  1  0
  7  8  1  0
  8  9  1  0
  2 10  1  0
 10 11  1  0
 11 12  1  0
 12 13  1  0
 13 14  1  0
 14 15  1  0
 15 16  2  0
 15 17  1  0
 17 18  1  0
 18 19  2  0
 19 20  1  0
 20 21  2  0
 21 22  1  0
 22 23  1  0
 22 24  2  0
 13 25  1  0
  9  5  1  0
 25 10  1  0
 24 18  1  0
  1 26  1  0
  1 27  1  0
  2 28  1  6
  6 29  1  0
  6 30  1  0
  7 31  1  0
  7 32  1  0
  9 33  1  0
  9 34  1  0
 10 35  1  6
 11 36  1  0
 11 37  1  0
 12 38  1  0
 12 39  1  0
 13 40  1  6
 17 41  1  0
 19 42  1  0
 20 43  1  0
 21 44  1  0
 24 45  1  0
 25 46  1  0
 25 47  1  0
M  END
$$$$
