
     RDKit          3D

 49 52  0  0  0  0  0  0  0  0999 V2000
    4.1326   -3.1846    1.8586 N   0  0  0  0  0  0  0  0  0  0  0  0
    4.3912   -2.3927    1.0552 C   0  0  0  0  0  0  0  0  0  0  0  0
    4.7192   -1.3845    0.0326 C   0  0  2  0  0  0  0  0  0  0  0  0
    6.1964   -0.9899    0.1030 C   0  0  0  0  0  0  0  0  0  0  0  0
    6.2276    0.5297   -0.0350 C   0  0  0  0  0  0  0  0  0  0  0  0
    4.8349    1.0143    0.3443 C   0  0  0  0  0  0  0  0  0  0  0  0
    3.9732   -0.1540    0.2597 N   0  0  0  0  0  0  0  0  0  0  0  0
    2.5342   -0.0820    0.2605 C   0  0  0  0  0  0  0  0  0  0  0  0
    1.8592   -1.1131   -0.0109 O   0  0  0  0  0  0  0  0  0  0  0  0
    1.8308    1.2129    0.5765 C   0  0  0  0  0  0  0  0  0  0  0  0
    0.3845    1.0267    0.6817 N   0  0  0  0  0  0  0  0  0  0  0  0
   -0.4572    0.8834   -0.4704 C   0  0  0  0  0  0  0  0  0  0  0  0
    0.0328    0.9426   -1.6307 O   0  0  0  0  0  0  0  0  0  0  0  0
   -1.9098    0.6674   -0.3010 C   0  0  0  0  0  0  0  0  0  0  0  0
   -2.4760   -0.6012   -0.5834 C   0  0  0  0  0  0  0  0  0  0  0  0
   -3.8557   -0.8005   -0.3374 C   0  0  0  0  0  0  0  0  0  0  0  0
   -4.6210    0.2280    0.1087 N   0  0  0  0  0  0  0  0  0  0  0  0
   -4.1131    1.4569    0.3701 C   0  0  0  0  0  0  0  0  0  0  0  0
   -4.9622    2.4683    0.8345 C   0  0  0  0  0  0  0  0  0  0  0  0
   -4.4557    3.7401    1.1068 C   0  0  0  0  0  0  0  0  0  0  0  0
   -3.0998    4.0088    0.9138 C   0  0  0  0  0  0  0  0  0  0  0  0
   -2.2426    3.0071    0.4494 C   0  0  0  0  0  0  0  0  0  0  0  0
   -2.7371    1.7130    0.1746 C   0  0  0  0  0  0  0  0  0  0  0  0
   -4.5395   -2.1091   -0.6363 C   0  0  0  0  0  0  0  0  0  0  0  0
   -3.5644   -3.2858   -0.6547 C   0  0  0  0  0  0  0  0  0  0  0  0
   -2.3742   -2.9605   -1.5519 C   0  0  0  0  0  0  0  0  0  0  0  0
   -1.5907   -1.7678   -0.9953 C   0  0  0  0  0  0  0  0  0  0  0  0
    4.4760   -1.7846   -0.9758 H   0  0  0  0  0  0  0  0  0  0  0  0
    6.7794   -1.4759   -0.7094 H   0  0  0  0  0  0  0  0  0  0  0  0
    6.6496   -1.2680    1.0819 H   0  0  0  0  0  0  0  0  0  0  0  0
    7.0047    0.9812    0.6195 H   0  0  0  0  0  0  0  0  0  0  0  0
    6.4412    0.8002   -1.0927 H   0  0  0  0  0  0  0  0  0  0  0  0
    4.5001    1.8024   -0.3643 H   0  0  0  0  0  0  0  0  0  0  0  0
    4.8263    1.4088    1.3833 H   0  0  0  0  0  0  0  0  0  0  0  0
    2.0557    1.9696   -0.2050 H   0  0  0  0  0  0  0  0  0  0  0  0
    2.2155    1.5961    1.5456 H   0  0  0  0  0  0  0  0  0  0  0  0
   -0.0487    0.9999    1.6325 H   0  0  0  0  0  0  0  0  0  0  0  0
   -6.0163    2.2699    0.9850 H   0  0  0  0  0  0  0  0  0  0  0  0
   -5.1154    4.5195    1.4657 H   0  0  0  0  0  0  0  0  0  0  0  0
   -2.7116    4.9975    1.1221 H   0  0  0  0  0  0  0  0  0  0  0  0
   -1.2001    3.2567    0.3028 H   0  0  0  0  0  0  0  0  0  0  0  0
   -5.0399   -2.0288   -1.6256 H   0  0  0  0  0  0  0  0  0  0  0  0
   -5.3225   -2.3036    0.1283 H   0  0  0  0  0  0  0  0  0  0  0  0
   -3.2127   -3.5030    0.3782 H   0  0  0  0  0  0  0  0  0  0  0  0
   -4.0846   -4.1889   -1.0407 H   0  0  0  0  0  0  0  0  0  0  0  0
   -2.7306   -2.7291   -2.5802 H   0  0  0  0  0  0  0  0  0  0  0  0
   -1.7035   -3.8447   -1.6128 H   0  0  0  0  0  0  0  0  0  0  0  0
   -0.8684   -1.4501   -1.7758 H   0  0  0  0  0  0  0  0  0  0  0  0
   -1.0115   -2.0988   -0.1060 H   0  0  0  0  0  0  0  0  0  0  0  0
  1  2  3  0
  2  3  1  0
  3  4  1  0
  4  5  1  0
  5  6  1  0
  6  7  1  0
  7  8  1  0
  8  9  2  0
  8 10  1  0
 10 11  1  0
 11 12  1  0
 12 13  2  0
 12 14  1  0
 14 15  2  0
 15 16  1  0
 16 17  2  0
 17 18  1  0
 18 19  2  0
 19 20  1  0
 20 21  2  0
 21 22  1  0
 22 23  2  0
 16 24  1  0
 24 25  1  0
 25 26  1  0
 26 27  1  0
  7  3  1  0
 23 14  1  0
 27 15  1  0
 23 18  1  0
  3 28  1  6
  4 29  1  0
  4 30  1  0
  5 31  1  0
  5 32  1  0
  6 33  1  0
  6 34  1  0
 10 35  1  0
 10 36  1  0
 11 37  1  0
 19 38  1  0
 20 39  1  0
 21 40  1  0
 22 41  1  0
 24 42  1  0
 24 43  1  0
 25 44  1  0
 25 45  1  0
 26 46  1  0
 26 47  1  0
 27 48  1  0
 27 49  1  0
M  END
$$$$
