
     RDKit          3D

 39 38  0  0  0  0  0  0  0  0999 V2000
    5.5549    0.9344   -0.5339 C   0  0  0  0  0  0  0  0  0  0  0  0
    4.2537    0.2624   -0.9626 C   0  0  0  0  0  0  0  0  0  0  0  0
    3.1553    0.4611    0.0880 C   0  0  0  0  0  0  0  0  0  0  0  0
    1.8483   -0.2213   -0.3468 C   0  0  0  0  0  0  0  0  0  0  0  0
    0.6993    0.0110    0.6524 C   0  0  1  0  0  0  0  0  0  0  0  0
   -0.5585   -0.4603    0.0676 N   0  0  0  0  0  0  0  0  0  0  0  0
   -1.4532    0.4118   -0.6427 C   0  0  0  0  0  0  0  0  0  0  0  0
   -1.1818    1.6376   -0.7610 O   0  0  0  0  0  0  0  0  0  0  0  0
   -2.7218   -0.1219   -1.2696 C   0  0  1  0  0  0  0  0  0  0  0  0
   -2.4088   -1.0084   -2.3925 N   0  0  0  0  0  0  0  0  0  0  0  0
   -3.6160   -0.8620   -0.2510 C   0  0  0  0  0  0  0  0  0  0  0  0
   -4.0147   -0.0164    0.9728 C   0  0  0  0  0  0  0  0  0  0  0  0
   -4.9087    1.1693    0.6118 C   0  0  0  0  0  0  0  0  0  0  0  0
    0.9491   -0.7407    2.0485 B   0  0  0  0  0  0  0  0  0  0  0  0
    1.0205    0.0284    3.2883 O   0  0  0  0  0  0  0  0  0  0  0  0
    1.0896   -2.1948    2.0880 O   0  0  0  0  0  0  0  0  0  0  0  0
    5.9171    0.4995    0.4220 H   0  0  0  0  0  0  0  0  0  0  0  0
    6.3299    0.7747   -1.3128 H   0  0  0  0  0  0  0  0  0  0  0  0
    5.4007    2.0270   -0.4050 H   0  0  0  0  0  0  0  0  0  0  0  0
    4.4410   -0.8239   -1.1079 H   0  0  0  0  0  0  0  0  0  0  0  0
    3.9281    0.6967   -1.9330 H   0  0  0  0  0  0  0  0  0  0  0  0
    2.9736    1.5495    0.2279 H   0  0  0  0  0  0  0  0  0  0  0  0
    3.4977    0.0329    1.0551 H   0  0  0  0  0  0  0  0  0  0  0  0
    1.5451    0.1963   -1.3324 H   0  0  0  0  0  0  0  0  0  0  0  0
    2.0180   -1.3126   -0.4845 H   0  0  0  0  0  0  0  0  0  0  0  0
    0.6249    1.0977    0.8762 H   0  0  0  0  0  0  0  0  0  0  0  0
   -0.7383   -1.4897    0.0397 H   0  0  0  0  0  0  0  0  0  0  0  0
   -3.3044    0.7332   -1.6773 H   0  0  0  0  0  0  0  0  0  0  0  0
   -1.8511   -0.4732   -3.0979 H   0  0  0  0  0  0  0  0  0  0  0  0
   -1.8141   -1.8030   -2.0624 H   0  0  0  0  0  0  0  0  0  0  0  0
   -3.0933   -1.7735    0.1108 H   0  0  0  0  0  0  0  0  0  0  0  0
   -4.5391   -1.2078   -0.7662 H   0  0  0  0  0  0  0  0  0  0  0  0
   -4.5724   -0.6694    1.6785 H   0  0  0  0  0  0  0  0  0  0  0  0
   -3.1107    0.3476    1.5064 H   0  0  0  0  0  0  0  0  0  0  0  0
   -5.2802    1.6475    1.5425 H   0  0  0  0  0  0  0  0  0  0  0  0
   -4.3388    1.9299    0.0390 H   0  0  0  0  0  0  0  0  0  0  0  0
   -5.7823    0.8312    0.0150 H   0  0  0  0  0  0  0  0  0  0  0  0
    1.9796    0.2552    3.3869 H   0  0  0  0  0  0  0  0  0  0  0  0
    2.0617   -2.3558    1.9867 H   0  0  0  0  0  0  0  0  0  0  0  0
  1  2  1  0
  2  3  1  0
  3  4  1  0
  4  5  1  0
  5  6  1  0
  6  7  1  0
  7  8  2  0
  7  9  1  0
  9 10  1  0
  9 11  1  0
 11 12  1  0
 12 13  1  0
  5 14  1  0
 14 15  1  0
 14 16  1  0
  1 17  1  0
  1 18  1  0
  1 19  1  0
  2 20  1  0
  2 21  1  0
  3 22  1  0
  3 23  1  0
  4 24  1  0
  4 25  1  0
  5 26  1  1
  6 27  1  0
  9 28  1  6
 10 29  1  0
 10 30  1  0
 11 31  1  0
 11 32  1  0
 12 33  1  0
 12 34  1  0
 13 35  1  0
 13 36  1  0
 13 37  1  0
 15 38  1  0
 16 39  1  0
M  END
$$$$
