
     RDKit          3D

 54 54  0  0  0  0  0  0  0  0999 V2000
    5.4812   -2.4984    0.0650 C   0  0  0  0  0  0  0  0  0  0  0  0
    4.1258   -1.8722   -0.0766 C   0  0  0  0  0  0  0  0  0  0  0  0
    3.7486   -1.2693   -1.2868 C   0  0  0  0  0  0  0  0  0  0  0  0
    2.4998   -0.6530   -1.4077 C   0  0  0  0  0  0  0  0  0  0  0  0
    1.6206   -0.6233   -0.3160 C   0  0  0  0  0  0  0  0  0  0  0  0
    0.2993    0.0337   -0.4419 C   0  0  0  0  0  0  0  0  0  0  0  0
   -0.8655   -0.7384   -0.7106 C   0  0  0  0  0  0  0  0  0  0  0  0
   -0.7550   -2.2338   -0.9674 C   0  0  0  0  0  0  0  0  0  0  0  0
   -1.2045   -2.9852    0.1984 N   0  0  0  0  0  0  0  0  0  0  0  0
   -2.1250   -0.0764   -0.7475 C   0  0  0  0  0  0  0  0  0  0  0  0
   -3.4516   -0.7923   -0.9384 C   0  0  0  0  0  0  0  0  0  0  0  0
   -4.3893   -0.7331    0.2941 C   0  0  0  0  0  0  0  0  0  0  0  0
   -4.8737    0.6887    0.6148 C   0  0  0  0  0  0  0  0  0  0  0  0
   -3.7643   -1.3870    1.5325 C   0  0  0  0  0  0  0  0  0  0  0  0
   -2.1691    1.2751   -0.6237 N   0  0  0  0  0  0  0  0  0  0  0  0
   -1.0730    2.0383   -0.4074 C   0  0  0  0  0  0  0  0  0  0  0  0
   -1.2160    3.4223   -0.2787 C   0  0  0  0  0  0  0  0  0  0  0  0
   -0.1030    4.2253   -0.0298 C   0  0  0  0  0  0  0  0  0  0  0  0
    1.1729    3.6530    0.0982 C   0  0  0  0  0  0  0  0  0  0  0  0
    2.3547    4.5031    0.3671 C   0  0  0  0  0  0  0  0  0  0  0  0
    2.2293    5.7522    0.4854 O   0  0  0  0  0  0  0  0  0  0  0  0
    3.6183    3.9311    0.4922 O   0  0  0  0  0  0  0  0  0  0  0  0
    1.3151    2.2600   -0.0322 C   0  0  0  0  0  0  0  0  0  0  0  0
    0.1953    1.4380   -0.2920 C   0  0  0  0  0  0  0  0  0  0  0  0
    2.0035   -1.2057    0.9000 C   0  0  0  0  0  0  0  0  0  0  0  0
    3.2519   -1.8227    1.0207 C   0  0  0  0  0  0  0  0  0  0  0  0
    0.6878    0.0000    0.0000 Cl  0  0  0  0  0  0  0  0  0  0  0  0
    0.6878    0.0000    0.0000 Cl  0  0  0  0  0  0  0  0  0  0  0  0
    5.4547   -3.3267    0.8048 H   0  0  0  0  0  0  0  0  0  0  0  0
    6.2082   -1.7318    0.4053 H   0  0  0  0  0  0  0  0  0  0  0  0
    5.8230   -2.9165   -0.9058 H   0  0  0  0  0  0  0  0  0  0  0  0
    4.4205   -1.2768   -2.1361 H   0  0  0  0  0  0  0  0  0  0  0  0
    2.2178   -0.1965   -2.3485 H   0  0  0  0  0  0  0  0  0  0  0  0
    0.2782   -2.5444   -1.2297 H   0  0  0  0  0  0  0  0  0  0  0  0
   -1.3571   -2.5132   -1.8569 H   0  0  0  0  0  0  0  0  0  0  0  0
   -1.1755   -4.0016   -0.0450 H   0  0  0  0  0  0  0  0  0  0  0  0
   -0.5112   -2.8420    0.9680 H   0  0  0  0  0  0  0  0  0  0  0  0
   -3.9703   -0.3284   -1.8052 H   0  0  0  0  0  0  0  0  0  0  0  0
   -3.3250   -1.8565   -1.2105 H   0  0  0  0  0  0  0  0  0  0  0  0
   -5.2947   -1.3260    0.0343 H   0  0  0  0  0  0  0  0  0  0  0  0
   -5.2232    1.1988   -0.3079 H   0  0  0  0  0  0  0  0  0  0  0  0
   -4.0706    1.2922    1.0868 H   0  0  0  0  0  0  0  0  0  0  0  0
   -5.7261    0.6426    1.3258 H   0  0  0  0  0  0  0  0  0  0  0  0
   -4.4731   -1.3427    2.3868 H   0  0  0  0  0  0  0  0  0  0  0  0
   -3.5477   -2.4559    1.3288 H   0  0  0  0  0  0  0  0  0  0  0  0
   -2.8250   -0.8706    1.8244 H   0  0  0  0  0  0  0  0  0  0  0  0
   -2.1944    3.8790   -0.3665 H   0  0  0  0  0  0  0  0  0  0  0  0
   -0.2430    5.2948    0.0663 H   0  0  0  0  0  0  0  0  0  0  0  0
    4.4332    4.5042    0.6761 H   0  0  0  0  0  0  0  0  0  0  0  0
    2.3003    1.8248    0.0701 H   0  0  0  0  0  0  0  0  0  0  0  0
    1.3376   -1.1759    1.7537 H   0  0  0  0  0  0  0  0  0  0  0  0
    3.5371   -2.2609    1.9691 H   0  0  0  0  0  0  0  0  0  0  0  0
   -0.6878    0.0000    0.0000 H   0  0  0  0  0  0  0  0  0  0  0  0
   -0.6878    0.0000    0.0000 H   0  0  0  0  0  0  0  0  0  0  0  0
  1  2  1  0
  2  3  2  0
  3  4  1  0
  4  5  2  0
  5  6  1  0
  6  7  2  0
  7  8  1  0
  8  9  1  0
  7 10  1  0
 10 11  1  0
 11 12  1  0
 12 13  1  0
 12 14  1  0
 10 15  2  0
 15 16  1  0
 16 17  2  0
 17 18  1  0
 18 19  2  0
 19 20  1  0
 20 21  2  0
 20 22  1  0
 19 23  1  0
 23 24  2  0
  5 25  1  0
 25 26  2  0
 26  2  1  0
 24  6  1  0
 24 16  1  0
  1 29  1  0
  1 30  1  0
  1 31  1  0
  3 32  1  0
  4 33  1  0
  8 34  1  0
  8 35  1  0
  9 36  1  0
  9 37  1  0
 11 38  1  0
 11 39  1  0
 12 40  1  0
 13 41  1  0
 13 42  1  0
 13 43  1  0
 14 44  1  0
 14 45  1  0
 14 46  1  0
 17 47  1  0
 18 48  1  0
 22 49  1  0
 23 50  1  0
 25 51  1  0
 26 52  1  0
 27 53  1  0
 28 54  1  0
M  END
$$$$
