
     RDKit          3D

 74 77  0  0  0  0  0  0  0  0999 V2000
    4.8858   -1.2816    0.0848 C   0  0  0  0  0  0  0  0  0  0  0  0
    3.8826   -0.4846    0.7051 O   0  0  0  0  0  0  0  0  0  0  0  0
    2.4986   -0.6510    0.5266 C   0  0  0  0  0  0  0  0  0  0  0  0
    1.9744   -1.6992   -0.2497 C   0  0  0  0  0  0  0  0  0  0  0  0
    0.5857   -1.8457   -0.4303 C   0  0  0  0  0  0  0  0  0  0  0  0
    0.0589   -2.8870   -1.2103 O   0  0  0  0  0  0  0  0  0  0  0  0
    0.8300   -3.8865   -1.8684 C   0  0  0  0  0  0  0  0  0  0  0  0
   -0.2965   -0.9265    0.1814 C   0  0  0  0  0  0  0  0  0  0  0  0
   -1.8091   -1.0178    0.0143 C   0  0  0  0  0  0  0  0  0  0  0  0
   -2.2300   -0.7126   -1.4469 C   0  0  0  0  0  0  0  0  0  0  0  0
   -3.7541   -0.6151   -1.6545 C   0  0  0  0  0  0  0  0  0  0  0  0
   -4.3783    0.4925   -0.8378 C   0  0  0  0  0  0  0  0  0  0  0  0
   -5.0554    0.1767    0.3524 C   0  0  0  0  0  0  0  0  0  0  0  0
   -5.6066    1.1857    1.1428 C   0  0  0  0  0  0  0  0  0  0  0  0
   -5.4883    2.5222    0.7586 C   0  0  0  0  0  0  0  0  0  0  0  0
   -6.0440    3.5178    1.5594 O   0  0  0  0  0  0  0  0  0  0  0  0
   -4.8132    2.8509   -0.4239 C   0  0  0  0  0  0  0  0  0  0  0  0
   -4.2506    1.8415   -1.2309 C   0  0  0  0  0  0  0  0  0  0  0  0
   -3.5628    2.1414   -2.4187 O   0  0  0  0  0  0  0  0  0  0  0  0
   -3.3397    3.4573   -2.9141 C   0  0  0  0  0  0  0  0  0  0  0  0
   -2.3470   -2.3161    0.6041 C   0  0  0  0  0  0  0  0  0  0  0  0
   -2.6345   -3.4537   -0.1791 C   0  0  0  0  0  0  0  0  0  0  0  0
   -3.1001   -4.6284    0.4185 C   0  0  0  0  0  0  0  0  0  0  0  0
   -3.2780   -4.6931    1.8025 C   0  0  0  0  0  0  0  0  0  0  0  0
   -3.7434   -5.8709    2.3825 O   0  0  0  0  0  0  0  0  0  0  0  0
   -2.9848   -3.5753    2.5920 C   0  0  0  0  0  0  0  0  0  0  0  0
   -2.5185   -2.3994    1.9985 C   0  0  0  0  0  0  0  0  0  0  0  0
    0.2363    0.1189    0.9560 C   0  0  0  0  0  0  0  0  0  0  0  0
    1.6182    0.2596    1.1387 C   0  0  0  0  0  0  0  0  0  0  0  0
    2.1399    1.4339    1.9367 C   0  0  0  0  0  0  0  0  0  0  0  0
    2.1562    2.7287    1.1086 C   0  0  0  0  0  0  0  0  0  0  0  0
    3.0000    2.6059   -0.1362 C   0  0  0  0  0  0  0  0  0  0  0  0
    2.4068    2.5561   -1.2485 O   0  0  0  0  0  0  0  0  0  0  0  0
    4.4843    2.4925   -0.0969 C   0  0  0  0  0  0  0  0  0  0  0  0
    5.1842    2.0909   -1.2515 C   0  0  0  0  0  0  0  0  0  0  0  0
    6.5742    1.9468   -1.2287 C   0  0  0  0  0  0  0  0  0  0  0  0
    7.2893    2.2049   -0.0573 C   0  0  0  0  0  0  0  0  0  0  0  0
    8.6740    2.0537   -0.0485 O   0  0  0  0  0  0  0  0  0  0  0  0
    6.6077    2.6128    1.0950 C   0  0  0  0  0  0  0  0  0  0  0  0
    5.2173    2.7578    1.0773 C   0  0  0  0  0  0  0  0  0  0  0  0
    5.8842   -0.9022    0.3847 H   0  0  0  0  0  0  0  0  0  0  0  0
    4.7984   -1.2124   -1.0201 H   0  0  0  0  0  0  0  0  0  0  0  0
    4.7929   -2.3380    0.4137 H   0  0  0  0  0  0  0  0  0  0  0  0
    2.6491   -2.3996   -0.7176 H   0  0  0  0  0  0  0  0  0  0  0  0
    0.1452   -4.5780   -2.4005 H   0  0  0  0  0  0  0  0  0  0  0  0
    1.4147   -4.4687   -1.1252 H   0  0  0  0  0  0  0  0  0  0  0  0
    1.5090   -3.4177   -2.6114 H   0  0  0  0  0  0  0  0  0  0  0  0
   -2.2610   -0.2006    0.6184 H   0  0  0  0  0  0  0  0  0  0  0  0
   -1.8253   -1.4745   -2.1434 H   0  0  0  0  0  0  0  0  0  0  0  0
   -1.7709    0.2533   -1.7521 H   0  0  0  0  0  0  0  0  0  0  0  0
   -3.9550   -0.4293   -2.7317 H   0  0  0  0  0  0  0  0  0  0  0  0
   -4.2355   -1.5879   -1.4205 H   0  0  0  0  0  0  0  0  0  0  0  0
   -5.1484   -0.8534    0.6742 H   0  0  0  0  0  0  0  0  0  0  0  0
   -6.1240    0.9284    2.0582 H   0  0  0  0  0  0  0  0  0  0  0  0
   -5.9760    4.4977    1.3107 H   0  0  0  0  0  0  0  0  0  0  0  0
   -4.7307    3.8922   -0.7036 H   0  0  0  0  0  0  0  0  0  0  0  0
   -2.7640    3.3950   -3.8601 H   0  0  0  0  0  0  0  0  0  0  0  0
   -2.7523    4.0472   -2.1790 H   0  0  0  0  0  0  0  0  0  0  0  0
   -4.3094    3.9573   -3.1205 H   0  0  0  0  0  0  0  0  0  0  0  0
   -2.5068   -3.4451   -1.2517 H   0  0  0  0  0  0  0  0  0  0  0  0
   -3.3213   -5.4917   -0.1962 H   0  0  0  0  0  0  0  0  0  0  0  0
   -3.8821   -5.9494    3.3833 H   0  0  0  0  0  0  0  0  0  0  0  0
   -3.1145   -3.6172    3.6659 H   0  0  0  0  0  0  0  0  0  0  0  0
   -2.2894   -1.5489    2.6291 H   0  0  0  0  0  0  0  0  0  0  0  0
   -0.4272    0.8399    1.4191 H   0  0  0  0  0  0  0  0  0  0  0  0
    3.1527    1.2237    2.3395 H   0  0  0  0  0  0  0  0  0  0  0  0
    1.4876    1.5904    2.8234 H   0  0  0  0  0  0  0  0  0  0  0  0
    2.5223    3.5699    1.7331 H   0  0  0  0  0  0  0  0  0  0  0  0
    1.1120    2.9861    0.8237 H   0  0  0  0  0  0  0  0  0  0  0  0
    4.6562    1.8714   -2.1710 H   0  0  0  0  0  0  0  0  0  0  0  0
    7.0958    1.6295   -2.1227 H   0  0  0  0  0  0  0  0  0  0  0  0
    9.2208    2.2328    0.7857 H   0  0  0  0  0  0  0  0  0  0  0  0
    7.1546    2.8176    2.0067 H   0  0  0  0  0  0  0  0  0  0  0  0
    4.7282    3.0781    1.9859 H   0  0  0  0  0  0  0  0  0  0  0  0
  1  2  1  0
  2  3  1  0
  3  4  2  0
  4  5  1  0
  5  6  1  0
  6  7  1  0
  5  8  2  0
  8  9  1  0
  9 10  1  0
 10 11  1  0
 11 12  1  0
 12 13  2  0
 13 14  1  0
 14 15  2  0
 15 16  1  0
 15 17  1  0
 17 18  2  0
 18 19  1  0
 19 20  1  0
  9 21  1  0
 21 22  2  0
 22 23  1  0
 23 24  2  0
 24 25  1  0
 24 26  1  0
 26 27  2  0
  8 28  1  0
 28 29  2  0
 29 30  1  0
 30 31  1  0
 31 32  1  0
 32 33  2  0
 32 34  1  0
 34 35  2  0
 35 36  1  0
 36 37  2  0
 37 38  1  0
 37 39  1  0
 39 40  2  0
 29  3  1  0
 40 34  1  0
 18 12  1  0
 27 21  1  0
  1 41  1  0
  1 42  1  0
  1 43  1  0
  4 44  1  0
  7 45  1  0
  7 46  1  0
  7 47  1  0
  9 48  1  0
 10 49  1  0
 10 50  1  0
 11 51  1  0
 11 52  1  0
 13 53  1  0
 14 54  1  0
 16 55  1  0
 17 56  1  0
 20 57  1  0
 20 58  1  0
 20 59  1  0
 22 60  1  0
 23 61  1  0
 25 62  1  0
 26 63  1  0
 27 64  1  0
 28 65  1  0
 30 66  1  0
 30 67  1  0
 31 68  1  0
 31 69  1  0
 35 70  1  0
 36 71  1  0
 38 72  1  0
 39 73  1  0
 40 74  1  0
M  END
$$$$
