
     RDKit          3D

 63 67  0  0  0  0  0  0  0  0999 V2000
   -2.6527    1.6780    4.6938 C   0  0  0  0  0  0  0  0  0  0  0  0
   -2.2846    0.6846    3.6856 C   0  0  0  0  0  0  0  0  0  0  0  0
   -1.9815   -0.1320    2.8528 C   0  0  0  0  0  0  0  0  0  0  0  0
   -1.6137   -1.1198    1.8341 C   0  0  0  0  0  0  0  0  0  0  0  0
   -1.2562   -0.4424    0.5847 N   0  0  0  0  0  0  0  0  0  0  0  0
   -2.0414   -0.3176   -0.5129 C   0  0  0  0  0  0  0  0  0  0  0  0
   -3.3756   -0.8304   -0.6104 N   0  0  0  0  0  0  0  0  0  0  0  0
   -3.6271   -2.0652   -1.3584 C   0  0  0  0  0  0  0  0  0  0  0  0
   -4.7926   -1.8755   -2.3417 C   0  0  0  0  0  0  0  0  0  0  0  0
   -5.9572   -1.0284   -1.7772 C   0  0  0  0  0  0  0  0  0  0  0  0
   -5.8331   -0.7580   -0.2680 C   0  0  2  0  0  0  0  0  0  0  0  0
   -6.9410    0.0846    0.1868 N   0  0  0  0  0  0  0  0  0  0  0  0
   -4.4719   -0.1037    0.0404 C   0  0  0  0  0  0  0  0  0  0  0  0
   -1.3928    0.3822   -1.5185 C   0  0  0  0  0  0  0  0  0  0  0  0
   -1.9519    0.7077   -2.8055 C   0  0  0  0  0  0  0  0  0  0  0  0
   -2.4050    0.9671   -3.8382 N   0  0  0  0  0  0  0  0  0  0  0  0
   -0.1487    0.7125   -0.9917 C   0  0  0  0  0  0  0  0  0  0  0  0
   -0.1041    0.2044    0.2783 C   0  0  0  0  0  0  0  0  0  0  0  0
    1.0287    0.4035    1.0632 C   0  0  0  0  0  0  0  0  0  0  0  0
    1.0793   -0.0525    2.2381 O   0  0  0  0  0  0  0  0  0  0  0  0
    2.0856    1.1086    0.5340 N   0  0  0  0  0  0  0  0  0  0  0  0
    3.3136    1.2977    1.3360 C   0  0  0  0  0  0  0  0  0  0  0  0
    4.2520    0.1272    1.1423 C   0  0  0  0  0  0  0  0  0  0  0  0
    3.8983   -1.0407    1.7475 N   0  0  0  0  0  0  0  0  0  0  0  0
    4.6221   -2.1811    1.6323 C   0  0  0  0  0  0  0  0  0  0  0  0
    5.7796   -2.1983    0.8635 C   0  0  0  0  0  0  0  0  0  0  0  0
    6.1938   -1.0299    0.2156 C   0  0  0  0  0  0  0  0  0  0  0  0
    7.3624   -1.0420   -0.5620 C   0  0  0  0  0  0  0  0  0  0  0  0
    7.7886    0.1170   -1.2086 C   0  0  0  0  0  0  0  0  0  0  0  0
    7.0572    1.2963   -1.0826 C   0  0  0  0  0  0  0  0  0  0  0  0
    5.8918    1.3271   -0.3123 C   0  0  0  0  0  0  0  0  0  0  0  0
    5.4328    0.1642    0.3469 C   0  0  0  0  0  0  0  0  0  0  0  0
    2.0190    1.6007   -0.7579 C   0  0  0  0  0  0  0  0  0  0  0  0
    3.0006    2.2384   -1.2308 O   0  0  0  0  0  0  0  0  0  0  0  0
    0.8948    1.4081   -1.5347 N   0  0  0  0  0  0  0  0  0  0  0  0
    0.8154    1.9330   -2.9075 C   0  0  0  0  0  0  0  0  0  0  0  0
   -3.6227    2.1411    4.4193 H   0  0  0  0  0  0  0  0  0  0  0  0
   -2.7451    1.1844    5.6831 H   0  0  0  0  0  0  0  0  0  0  0  0
   -1.8694    2.4621    4.7433 H   0  0  0  0  0  0  0  0  0  0  0  0
   -0.7657   -1.7372    2.1949 H   0  0  0  0  0  0  0  0  0  0  0  0
   -2.4710   -1.8068    1.6735 H   0  0  0  0  0  0  0  0  0  0  0  0
   -2.7198   -2.3808   -1.9197 H   0  0  0  0  0  0  0  0  0  0  0  0
   -3.8749   -2.8761   -0.6399 H   0  0  0  0  0  0  0  0  0  0  0  0
   -5.1711   -2.8777   -2.6387 H   0  0  0  0  0  0  0  0  0  0  0  0
   -4.4066   -1.3866   -3.2628 H   0  0  0  0  0  0  0  0  0  0  0  0
   -6.9205   -1.5462   -1.9781 H   0  0  0  0  0  0  0  0  0  0  0  0
   -5.9881   -0.0557   -2.3171 H   0  0  0  0  0  0  0  0  0  0  0  0
   -5.8935   -1.7314    0.2691 H   0  0  0  0  0  0  0  0  0  0  0  0
   -6.8610    0.2090    1.2224 H   0  0  0  0  0  0  0  0  0  0  0  0
   -6.8600    1.0332   -0.2475 H   0  0  0  0  0  0  0  0  0  0  0  0
   -4.3125   -0.0881    1.1389 H   0  0  0  0  0  0  0  0  0  0  0  0
   -4.4709    0.9462   -0.3265 H   0  0  0  0  0  0  0  0  0  0  0  0
    3.7758    2.2806    1.1304 H   0  0  0  0  0  0  0  0  0  0  0  0
    3.0616    1.3659    2.4169 H   0  0  0  0  0  0  0  0  0  0  0  0
    4.2926   -3.0794    2.1370 H   0  0  0  0  0  0  0  0  0  0  0  0
    6.3471   -3.1174    0.7764 H   0  0  0  0  0  0  0  0  0  0  0  0
    7.9465   -1.9486   -0.6687 H   0  0  0  0  0  0  0  0  0  0  0  0
    8.6907    0.1018   -1.8067 H   0  0  0  0  0  0  0  0  0  0  0  0
    7.3962    2.1943   -1.5832 H   0  0  0  0  0  0  0  0  0  0  0  0
    5.3789    2.2715   -0.2475 H   0  0  0  0  0  0  0  0  0  0  0  0
   -0.0115    2.6705   -2.9809 H   0  0  0  0  0  0  0  0  0  0  0  0
    1.7460    2.4470   -3.2245 H   0  0  0  0  0  0  0  0  0  0  0  0
    0.6447    1.0992   -3.6207 H   0  0  0  0  0  0  0  0  0  0  0  0
  1  2  1  0
  2  3  3  0
  3  4  1  0
  4  5  1  0
  5  6  1  0
  6  7  1  0
  7  8  1  0
  8  9  1  0
  9 10  1  0
 10 11  1  0
 11 12  1  0
 11 13  1  0
  6 14  2  0
 14 15  1  0
 15 16  3  0
 14 17  1  0
 17 18  2  0
 18 19  1  0
 19 20  2  0
 19 21  1  0
 21 22  1  0
 22 23  1  0
 23 24  2  0
 24 25  1  0
 25 26  2  0
 26 27  1  0
 27 28  2  0
 28 29  1  0
 29 30  2  0
 30 31  1  0
 31 32  2  0
 21 33  1  0
 33 34  2  0
 33 35  1  0
 35 36  1  0
 18  5  1  0
 32 23  1  0
 13  7  1  0
 35 17  1  0
 32 27  1  0
  1 37  1  0
  1 38  1  0
  1 39  1  0
  4 40  1  0
  4 41  1  0
  8 42  1  0
  8 43  1  0
  9 44  1  0
  9 45  1  0
 10 46  1  0
 10 47  1  0
 11 48  1  1
 12 49  1  0
 12 50  1  0
 13 51  1  0
 13 52  1  0
 22 53  1  0
 22 54  1  0
 25 55  1  0
 26 56  1  0
 28 57  1  0
 29 58  1  0
 30 59  1  0
 31 60  1  0
 36 61  1  0
 36 62  1  0
 36 63  1  0
M  END
$$$$
