
     RDKit          3D

 55 56  0  0  0  0  0  0  0  0999 V2000
   -3.0459   -0.5674    2.7023 C   0  0  0  0  0  0  0  0  0  0  0  0
   -2.9605    0.0283    1.3647 N   0  0  0  0  0  0  0  0  0  0  0  0
   -4.0493    0.8650    0.9435 C   0  0  0  0  0  0  0  0  0  0  0  0
   -4.2482    1.9548    1.5473 O   0  0  0  0  0  0  0  0  0  0  0  0
   -4.9628    0.4666   -0.2058 C   0  0  0  0  0  0  0  0  0  0  0  0
   -4.7578    1.4452   -1.3768 C   0  0  0  0  0  0  0  0  0  0  0  0
   -6.4278    0.5358    0.2690 C   0  0  0  0  0  0  0  0  0  0  0  0
   -4.6705   -0.9703   -0.6884 C   0  0  0  0  0  0  0  0  0  0  0  0
   -1.6727    0.1548    0.6564 C   0  0  1  0  0  0  0  0  0  0  0  0
   -0.7711    1.2039    1.3316 C   0  0  0  0  0  0  0  0  0  0  0  0
    0.5391    1.3722    0.5498 C   0  0  0  0  0  0  0  0  0  0  0  0
    1.2859    0.0239    0.4163 C   0  0  2  0  0  0  0  0  0  0  0  0
    2.6486    0.1889   -0.3242 C   0  0  2  0  0  0  0  0  0  0  0  0
    2.4501    0.4065   -1.7631 N   0  0  0  0  0  0  0  0  0  0  0  0
    3.5573   -1.0436   -0.0904 C   0  0  0  0  0  0  0  0  0  0  0  0
    4.9943   -0.7671   -0.4632 C   0  0  0  0  0  0  0  0  0  0  0  0
    5.5052   -1.2173   -1.6933 C   0  0  0  0  0  0  0  0  0  0  0  0
    6.8304   -0.9477   -2.0490 C   0  0  0  0  0  0  0  0  0  0  0  0
    7.3152   -1.3851   -3.2373 F   0  0  0  0  0  0  0  0  0  0  0  0
    7.6548   -0.2258   -1.1821 C   0  0  0  0  0  0  0  0  0  0  0  0
    7.1556    0.2286    0.0412 C   0  0  0  0  0  0  0  0  0  0  0  0
    5.8308   -0.0374    0.4027 C   0  0  0  0  0  0  0  0  0  0  0  0
    5.3649    0.4148    1.5947 F   0  0  0  0  0  0  0  0  0  0  0  0
    0.3696   -1.0370   -0.2407 C   0  0  0  0  0  0  0  0  0  0  0  0
   -0.9375   -1.1952    0.5477 C   0  0  0  0  0  0  0  0  0  0  0  0
   -4.1050   -0.6328    3.0335 H   0  0  0  0  0  0  0  0  0  0  0  0
   -2.4870    0.0509    3.4344 H   0  0  0  0  0  0  0  0  0  0  0  0
   -2.6447   -1.6003    2.6965 H   0  0  0  0  0  0  0  0  0  0  0  0
   -5.4230    1.1824   -2.2277 H   0  0  0  0  0  0  0  0  0  0  0  0
   -3.7066    1.4145   -1.7351 H   0  0  0  0  0  0  0  0  0  0  0  0
   -4.9889    2.4869   -1.0652 H   0  0  0  0  0  0  0  0  0  0  0  0
   -6.6948    1.5673    0.5858 H   0  0  0  0  0  0  0  0  0  0  0  0
   -6.5894   -0.1475    1.1310 H   0  0  0  0  0  0  0  0  0  0  0  0
   -7.1210    0.2389   -0.5477 H   0  0  0  0  0  0  0  0  0  0  0  0
   -4.7632   -1.6928    0.1513 H   0  0  0  0  0  0  0  0  0  0  0  0
   -5.3869   -1.2696   -1.4838 H   0  0  0  0  0  0  0  0  0  0  0  0
   -3.6478   -1.0479   -1.1128 H   0  0  0  0  0  0  0  0  0  0  0  0
   -1.8723    0.5021   -0.3828 H   0  0  0  0  0  0  0  0  0  0  0  0
   -0.5371    0.9004    2.3749 H   0  0  0  0  0  0  0  0  0  0  0  0
   -1.2998    2.1809    1.3670 H   0  0  0  0  0  0  0  0  0  0  0  0
    0.3012    1.7919   -0.4504 H   0  0  0  0  0  0  0  0  0  0  0  0
    1.1810    2.1052    1.0851 H   0  0  0  0  0  0  0  0  0  0  0  0
    1.5079   -0.3153    1.4539 H   0  0  0  0  0  0  0  0  0  0  0  0
    3.1629    1.0786    0.1071 H   0  0  0  0  0  0  0  0  0  0  0  0
    3.3813    0.5516   -2.2146 H   0  0  0  0  0  0  0  0  0  0  0  0
    1.9445    1.3093   -1.9024 H   0  0  0  0  0  0  0  0  0  0  0  0
    3.1757   -1.9105   -0.6721 H   0  0  0  0  0  0  0  0  0  0  0  0
    3.5284   -1.3435    0.9798 H   0  0  0  0  0  0  0  0  0  0  0  0
    4.8759   -1.7728   -2.3777 H   0  0  0  0  0  0  0  0  0  0  0  0
    8.6804   -0.0168   -1.4577 H   0  0  0  0  0  0  0  0  0  0  0  0
    7.7968    0.7889    0.7095 H   0  0  0  0  0  0  0  0  0  0  0  0
    0.8810   -2.0220   -0.2646 H   0  0  0  0  0  0  0  0  0  0  0  0
    0.1311   -0.7484   -1.2877 H   0  0  0  0  0  0  0  0  0  0  0  0
   -1.5881   -1.9355    0.0346 H   0  0  0  0  0  0  0  0  0  0  0  0
   -0.6902   -1.5896    1.5565 H   0  0  0  0  0  0  0  0  0  0  0  0
  1  2  1  0
  2  3  1  0
  3  4  2  0
  3  5  1  0
  5  6  1  0
  5  7  1  0
  5  8  1  0
  2  9  1  0
  9 10  1  0
 10 11  1  0
 11 12  1  0
 12 13  1  0
 13 14  1  0
 13 15  1  0
 15 16  1  0
 16 17  2  0
 17 18  1  0
 18 19  1  0
 18 20  2  0
 20 21  1  0
 21 22  2  0
 22 23  1  0
 12 24  1  0
 24 25  1  0
 25  9  1  0
 22 16  1  0
  1 26  1  0
  1 27  1  0
  1 28  1  0
  6 29  1  0
  6 30  1  0
  6 31  1  0
  7 32  1  0
  7 33  1  0
  7 34  1  0
  8 35  1  0
  8 36  1  0
  8 37  1  0
  9 38  1  6
 10 39  1  0
 10 40  1  0
 11 41  1  0
 11 42  1  0
 12 43  1  1
 13 44  1  1
 14 45  1  0
 14 46  1  0
 15 47  1  0
 15 48  1  0
 17 49  1  0
 20 50  1  0
 21 51  1  0
 24 52  1  0
 24 53  1  0
 25 54  1  0
 25 55  1  0
M  END
$$$$
