
     RDKit          3D

 40 42  0  0  0  0  0  0  0  0999 V2000
    2.6639   -3.4467   -0.7506 C   0  0  0  0  0  0  0  0  0  0  0  0
    2.3707   -2.0742   -0.2957 N   0  0  0  0  0  0  0  0  0  0  0  0
    1.0811   -1.6130   -0.3155 C   0  0  0  0  0  0  0  0  0  0  0  0
    0.1606   -2.3785   -0.7150 O   0  0  0  0  0  0  0  0  0  0  0  0
    0.7861   -0.2893    0.0941 C   0  0  0  0  0  0  0  0  0  0  0  0
   -0.5300    0.2658    0.1260 C   0  0  0  0  0  0  0  0  0  0  0  0
   -1.7136   -0.5351   -0.2720 C   0  0  0  0  0  0  0  0  0  0  0  0
   -2.1916   -0.4468   -1.5889 C   0  0  0  0  0  0  0  0  0  0  0  0
   -3.3110   -1.1845   -1.9824 C   0  0  0  0  0  0  0  0  0  0  0  0
   -3.9611   -2.0130   -1.0647 C   0  0  0  0  0  0  0  0  0  0  0  0
   -3.4944   -2.1048    0.2494 C   0  0  0  0  0  0  0  0  0  0  0  0
   -2.3740   -1.3692    0.6535 C   0  0  0  0  0  0  0  0  0  0  0  0
   -1.7768   -1.5222    2.4691 Br  0  0  0  0  0  0  0  0  0  0  0  0
   -0.7220    1.6103    0.5444 C   0  0  0  0  0  0  0  0  0  0  0  0
   -2.1164    2.2112    0.6138 C   0  0  0  0  0  0  0  0  0  0  0  0
   -2.4789    2.7910   -0.6755 N   0  0  0  0  0  0  0  0  0  0  0  0
    0.4141    2.3860    0.8634 C   0  0  0  0  0  0  0  0  0  0  0  0
    0.3249    3.7742    1.2081 N   0  0  0  0  0  0  0  0  0  0  0  0
    1.6420    1.8165    0.8370 N   0  0  0  0  0  0  0  0  0  0  0  0
    1.8688    0.5238    0.4855 C   0  0  0  0  0  0  0  0  0  0  0  0
    3.1482    0.0338    0.4898 N   0  0  0  0  0  0  0  0  0  0  0  0
    4.2673    0.9150    0.8752 C   0  0  0  0  0  0  0  0  0  0  0  0
    3.3983   -1.2445    0.0662 C   0  0  0  0  0  0  0  0  0  0  0  0
    4.5904   -1.6610    0.0010 O   0  0  0  0  0  0  0  0  0  0  0  0
    1.8340   -4.1415   -0.4996 H   0  0  0  0  0  0  0  0  0  0  0  0
    2.8224   -3.4489   -1.8496 H   0  0  0  0  0  0  0  0  0  0  0  0
    3.5673   -3.8567   -0.2507 H   0  0  0  0  0  0  0  0  0  0  0  0
   -1.6958    0.1934   -2.3084 H   0  0  0  0  0  0  0  0  0  0  0  0
   -3.6750   -1.1136   -2.9991 H   0  0  0  0  0  0  0  0  0  0  0  0
   -4.8282   -2.5835   -1.3715 H   0  0  0  0  0  0  0  0  0  0  0  0
   -4.0056   -2.7476    0.9545 H   0  0  0  0  0  0  0  0  0  0  0  0
   -2.1967    2.9708    1.4194 H   0  0  0  0  0  0  0  0  0  0  0  0
   -2.8650    1.4394    0.8901 H   0  0  0  0  0  0  0  0  0  0  0  0
   -1.8805    3.6323   -0.8407 H   0  0  0  0  0  0  0  0  0  0  0  0
   -3.4638    3.1351   -0.6053 H   0  0  0  0  0  0  0  0  0  0  0  0
    1.1840    4.2825    1.5149 H   0  0  0  0  0  0  0  0  0  0  0  0
   -0.5388    4.3418    1.0757 H   0  0  0  0  0  0  0  0  0  0  0  0
    4.5645    1.5410    0.0076 H   0  0  0  0  0  0  0  0  0  0  0  0
    3.9812    1.5742    1.7226 H   0  0  0  0  0  0  0  0  0  0  0  0
    5.1490    0.3366    1.2239 H   0  0  0  0  0  0  0  0  0  0  0  0
  1  2  1  0
  2  3  1  0
  3  4  2  0
  3  5  1  0
  5  6  2  0
  6  7  1  0
  7  8  2  0
  8  9  1  0
  9 10  2  0
 10 11  1  0
 11 12  2  0
 12 13  1  0
  6 14  1  0
 14 15  1  0
 15 16  1  0
 14 17  2  0
 17 18  1  0
 17 19  1  0
 19 20  2  0
 20 21  1  0
 21 22  1  0
 21 23  1  0
 23 24  2  0
 23  2  1  0
 20  5  1  0
 12  7  1  0
  1 25  1  0
  1 26  1  0
  1 27  1  0
  8 28  1  0
  9 29  1  0
 10 30  1  0
 11 31  1  0
 15 32  1  0
 15 33  1  0
 16 34  1  0
 16 35  1  0
 18 36  1  0
 18 37  1  0
 22 38  1  0
 22 39  1  0
 22 40  1  0
M  END
$$$$
