
     RDKit          3D

 58 60  0  0  0  0  0  0  0  0999 V2000
   -0.5044   -3.2289    1.2139 C   0  0  0  0  0  0  0  0  0  0  0  0
    0.8684   -3.4201    0.7410 N   0  0  0  0  0  0  0  0  0  0  0  0
    1.7117   -4.4128    1.4071 C   0  0  0  0  0  0  0  0  0  0  0  0
    1.2718   -2.9212   -0.5484 C   0  0  0  0  0  0  0  0  0  0  0  0
    1.7391   -3.7295   -1.3968 O   0  0  0  0  0  0  0  0  0  0  0  0
    1.2551   -1.4412   -0.8889 C   0  0  1  0  0  0  0  0  0  0  0  0
   -0.1544   -0.8510   -0.7939 C   0  0  0  0  0  0  0  0  0  0  0  0
   -0.5025    0.2282    0.0463 C   0  0  0  0  0  0  0  0  0  0  0  0
   -1.8134    0.7107    0.0835 C   0  0  0  0  0  0  0  0  0  0  0  0
   -2.8111    0.1388   -0.7220 C   0  0  0  0  0  0  0  0  0  0  0  0
   -4.2047    0.6493   -0.6771 C   0  0  0  0  0  0  0  0  0  0  0  0
   -5.3066   -0.2424   -0.7363 C   0  0  0  0  0  0  0  0  0  0  0  0
   -6.6246    0.2411   -0.6938 C   0  0  0  0  0  0  0  0  0  0  0  0
   -6.8005    1.6164   -0.5924 C   0  0  0  0  0  0  0  0  0  0  0  0
   -7.9704    2.2771   -0.5402 N   0  0  0  0  0  0  0  0  0  0  0  0
   -7.5465    3.5653   -0.4503 C   0  0  0  0  0  0  0  0  0  0  0  0
   -6.1970    3.6826   -0.4480 N   0  0  0  0  0  0  0  0  0  0  0  0
   -5.7552    2.4447   -0.5372 N   0  0  0  0  0  0  0  0  0  0  0  0
   -4.4639    2.0337   -0.5739 C   0  0  0  0  0  0  0  0  0  0  0  0
   -2.4659   -0.9199   -1.5763 C   0  0  0  0  0  0  0  0  0  0  0  0
   -1.1555   -1.4009   -1.6164 C   0  0  0  0  0  0  0  0  0  0  0  0
    2.4323   -0.7059   -0.1633 C   0  0  2  0  0  0  0  0  0  0  0  0
    2.3377   -0.7507    1.3037 N   0  0  0  0  0  0  0  0  0  0  0  0
    2.6620    0.7187   -0.6334 C   0  0  0  0  0  0  0  0  0  0  0  0
    1.8420    1.2622   -1.4235 O   0  0  0  0  0  0  0  0  0  0  0  0
    3.8316    1.4565   -0.2279 N   0  0  0  0  0  0  0  0  0  0  0  0
    4.9401    0.8995    0.5323 C   0  0  0  0  0  0  0  0  0  0  0  0
    5.9060    2.0552    0.7599 C   0  0  0  0  0  0  0  0  0  0  0  0
    5.5157    3.1290   -0.2539 C   0  0  0  0  0  0  0  0  0  0  0  0
    5.6322    4.3951    0.2950 F   0  0  0  0  0  0  0  0  0  0  0  0
    6.3296    3.0358   -1.3714 F   0  0  0  0  0  0  0  0  0  0  0  0
    4.0702    2.8307   -0.6373 C   0  0  0  0  0  0  0  0  0  0  0  0
    0.6878    0.0000    0.0000 Cl  0  0  0  0  0  0  0  0  0  0  0  0
   -0.7306   -3.9052    2.0660 H   0  0  0  0  0  0  0  0  0  0  0  0
   -0.6497   -2.1874    1.5617 H   0  0  0  0  0  0  0  0  0  0  0  0
   -1.2231   -3.4561    0.3988 H   0  0  0  0  0  0  0  0  0  0  0  0
    2.7774   -4.2724    1.1245 H   0  0  0  0  0  0  0  0  0  0  0  0
    1.3881   -5.4344    1.1167 H   0  0  0  0  0  0  0  0  0  0  0  0
    1.6343   -4.3008    2.5094 H   0  0  0  0  0  0  0  0  0  0  0  0
    1.5110   -1.3737   -1.9719 H   0  0  0  0  0  0  0  0  0  0  0  0
    0.2250    0.7221    0.6709 H   0  0  0  0  0  0  0  0  0  0  0  0
   -2.0490    1.5258    0.7562 H   0  0  0  0  0  0  0  0  0  0  0  0
   -5.1465   -1.3113   -0.7977 H   0  0  0  0  0  0  0  0  0  0  0  0
   -7.4705   -0.4329   -0.7349 H   0  0  0  0  0  0  0  0  0  0  0  0
   -8.2181    4.4108   -0.3874 H   0  0  0  0  0  0  0  0  0  0  0  0
   -3.6612    2.7600   -0.5422 H   0  0  0  0  0  0  0  0  0  0  0  0
   -3.2054   -1.3661   -2.2292 H   0  0  0  0  0  0  0  0  0  0  0  0
   -0.9201   -2.2158   -2.2901 H   0  0  0  0  0  0  0  0  0  0  0  0
    3.3565   -1.2528   -0.4631 H   0  0  0  0  0  0  0  0  0  0  0  0
    2.9013   -1.5593    1.6540 H   0  0  0  0  0  0  0  0  0  0  0  0
    1.3615   -0.9187    1.6261 H   0  0  0  0  0  0  0  0  0  0  0  0
    4.5914    0.5017    1.5079 H   0  0  0  0  0  0  0  0  0  0  0  0
    5.4308    0.0943   -0.0561 H   0  0  0  0  0  0  0  0  0  0  0  0
    6.9619    1.7320    0.6305 H   0  0  0  0  0  0  0  0  0  0  0  0
    5.7737    2.4486    1.7923 H   0  0  0  0  0  0  0  0  0  0  0  0
    3.3682    3.5021   -0.0968 H   0  0  0  0  0  0  0  0  0  0  0  0
    3.9240    2.9433   -1.7339 H   0  0  0  0  0  0  0  0  0  0  0  0
   -0.6878    0.0000    0.0000 H   0  0  0  0  0  0  0  0  0  0  0  0
  1  2  1  0
  2  3  1  0
  2  4  1  0
  4  5  2  0
  4  6  1  0
  6  7  1  0
  7  8  2  0
  8  9  1  0
  9 10  2  0
 10 11  1  0
 11 12  1  0
 12 13  2  0
 13 14  1  0
 14 15  2  0
 15 16  1  0
 16 17  2  0
 17 18  1  0
 18 19  1  0
 10 20  1  0
 20 21  2  0
  6 22  1  0
 22 23  1  0
 22 24  1  0
 24 25  2  0
 24 26  1  0
 26 27  1  0
 27 28  1  0
 28 29  1  0
 29 30  1  0
 29 31  1  0
 29 32  1  0
 21  7  1  0
 32 26  1  0
 19 11  2  0
 18 14  1  0
  1 34  1  0
  1 35  1  0
  1 36  1  0
  3 37  1  0
  3 38  1  0
  3 39  1  0
  6 40  1  6
  8 41  1  0
  9 42  1  0
 12 43  1  0
 13 44  1  0
 16 45  1  0
 19 46  1  0
 20 47  1  0
 21 48  1  0
 22 49  1  1
 23 50  1  0
 23 51  1  0
 27 52  1  0
 27 53  1  0
 28 54  1  0
 28 55  1  0
 32 56  1  0
 32 57  1  0
 33 58  1  0
M  END
$$$$
