
     RDKit          3D

 73 76  0  0  0  0  0  0  0  0999 V2000
    3.8534   -0.7614    3.0098 C   0  0  0  0  0  0  0  0  0  0  0  0
    3.1511   -1.1479    1.7869 C   0  0  0  0  0  0  0  0  0  0  0  0
    2.5692   -1.4658    0.7806 C   0  0  0  0  0  0  0  0  0  0  0  0
    1.8575   -1.8464   -0.4431 C   0  0  0  0  0  0  0  0  0  0  0  0
    1.4198   -0.6483   -1.1629 N   0  0  0  0  0  0  0  0  0  0  0  0
    0.1610   -0.1403   -1.2534 C   0  0  0  0  0  0  0  0  0  0  0  0
   -0.9766   -0.7041   -0.5871 N   0  0  0  0  0  0  0  0  0  0  0  0
   -1.0350   -0.6999    0.8795 C   0  0  0  0  0  0  0  0  0  0  0  0
   -1.6458   -2.0032    1.4258 C   0  0  0  0  0  0  0  0  0  0  0  0
   -2.5889   -2.7101    0.4333 C   0  0  0  0  0  0  0  0  0  0  0  0
   -3.2550   -1.7318   -0.5501 C   0  0  1  0  0  0  0  0  0  0  0  0
   -4.0946   -0.7598    0.1627 N   0  0  0  0  0  0  0  0  0  0  0  0
   -5.3390   -1.1177    0.7744 C   0  0  0  0  0  0  0  0  0  0  0  0
   -5.7791   -2.2947    0.6716 O   0  0  0  0  0  0  0  0  0  0  0  0
   -6.0545   -0.1371    1.4775 O   0  0  0  0  0  0  0  0  0  0  0  0
   -7.3018   -0.3230    2.1634 C   0  0  0  0  0  0  0  0  0  0  0  0
   -8.4070   -0.7441    1.1758 C   0  0  0  0  0  0  0  0  0  0  0  0
   -7.1521   -1.3654    3.2881 C   0  0  0  0  0  0  0  0  0  0  0  0
   -7.6828    1.0283    2.7871 C   0  0  0  0  0  0  0  0  0  0  0  0
   -2.1683   -1.0229   -1.3855 C   0  0  0  0  0  0  0  0  0  0  0  0
    0.0669    0.9523   -2.0541 N   0  0  0  0  0  0  0  0  0  0  0  0
    1.3402    1.1299   -2.4575 C   0  0  0  0  0  0  0  0  0  0  0  0
    2.1512    0.1807   -1.9324 C   0  0  0  0  0  0  0  0  0  0  0  0
    3.5100    0.1798   -2.2251 C   0  0  0  0  0  0  0  0  0  0  0  0
    4.2721   -0.6930   -1.7269 O   0  0  0  0  0  0  0  0  0  0  0  0
    3.9990    1.1578   -3.0626 N   0  0  0  0  0  0  0  0  0  0  0  0
    5.4462    1.2300   -3.3422 C   0  0  0  0  0  0  0  0  0  0  0  0
    6.1051    2.1515   -2.3568 C   0  0  0  0  0  0  0  0  0  0  0  0
    6.4162    3.3198   -2.7126 O   0  0  0  0  0  0  0  0  0  0  0  0
    6.3145    1.7335   -0.9575 C   0  0  0  0  0  0  0  0  0  0  0  0
    7.0707    0.5811   -0.6843 C   0  0  0  0  0  0  0  0  0  0  0  0
    7.2790    0.1683    0.6340 C   0  0  0  0  0  0  0  0  0  0  0  0
    6.7346    0.8999    1.6905 C   0  0  0  0  0  0  0  0  0  0  0  0
    5.9715    2.0404    1.4312 C   0  0  0  0  0  0  0  0  0  0  0  0
    5.7556    2.4629    0.1139 C   0  0  0  0  0  0  0  0  0  0  0  0
    4.6341    3.9928   -0.1744 Br  0  0  0  0  0  0  0  0  0  0  0  0
    3.1481    2.1225   -3.5785 C   0  0  0  0  0  0  0  0  0  0  0  0
    3.6069    3.0217   -4.3388 O   0  0  0  0  0  0  0  0  0  0  0  0
    1.8058    2.1183   -3.2682 N   0  0  0  0  0  0  0  0  0  0  0  0
    0.8937    3.1181   -3.8399 C   0  0  0  0  0  0  0  0  0  0  0  0
    3.9288    0.3442    3.0590 H   0  0  0  0  0  0  0  0  0  0  0  0
    3.2918   -1.1325    3.8915 H   0  0  0  0  0  0  0  0  0  0  0  0
    4.8708   -1.2034    3.0069 H   0  0  0  0  0  0  0  0  0  0  0  0
    2.5243   -2.4560   -1.0874 H   0  0  0  0  0  0  0  0  0  0  0  0
    0.9872   -2.4808   -0.1761 H   0  0  0  0  0  0  0  0  0  0  0  0
   -1.6497    0.1649    1.2082 H   0  0  0  0  0  0  0  0  0  0  0  0
   -0.0262   -0.5535    1.3199 H   0  0  0  0  0  0  0  0  0  0  0  0
   -0.8291   -2.7053    1.7019 H   0  0  0  0  0  0  0  0  0  0  0  0
   -2.2044   -1.7691    2.3583 H   0  0  0  0  0  0  0  0  0  0  0  0
   -2.0029   -3.4530   -0.1523 H   0  0  0  0  0  0  0  0  0  0  0  0
   -3.3588   -3.2804    0.9951 H   0  0  0  0  0  0  0  0  0  0  0  0
   -3.8993   -2.3082   -1.2508 H   0  0  0  0  0  0  0  0  0  0  0  0
   -3.8193    0.2481    0.1882 H   0  0  0  0  0  0  0  0  0  0  0  0
   -8.4552   -0.0287    0.3271 H   0  0  0  0  0  0  0  0  0  0  0  0
   -9.3967   -0.7615    1.6815 H   0  0  0  0  0  0  0  0  0  0  0  0
   -8.2209   -1.7581    0.7673 H   0  0  0  0  0  0  0  0  0  0  0  0
   -6.9636   -2.3787    2.8789 H   0  0  0  0  0  0  0  0  0  0  0  0
   -8.0789   -1.4161    3.8997 H   0  0  0  0  0  0  0  0  0  0  0  0
   -6.3036   -1.0935    3.9520 H   0  0  0  0  0  0  0  0  0  0  0  0
   -6.8940    1.3617    3.4955 H   0  0  0  0  0  0  0  0  0  0  0  0
   -7.7849    1.8025    1.9964 H   0  0  0  0  0  0  0  0  0  0  0  0
   -8.6456    0.9565    3.3383 H   0  0  0  0  0  0  0  0  0  0  0  0
   -1.8650   -1.7047   -2.2105 H   0  0  0  0  0  0  0  0  0  0  0  0
   -2.5752   -0.0984   -1.8501 H   0  0  0  0  0  0  0  0  0  0  0  0
    5.9145    0.2237   -3.3000 H   0  0  0  0  0  0  0  0  0  0  0  0
    5.6275    1.5904   -4.3786 H   0  0  0  0  0  0  0  0  0  0  0  0
    7.5107    0.0075   -1.4905 H   0  0  0  0  0  0  0  0  0  0  0  0
    7.8657   -0.7183    0.8368 H   0  0  0  0  0  0  0  0  0  0  0  0
    6.8970    0.5785    2.7111 H   0  0  0  0  0  0  0  0  0  0  0  0
    5.5389    2.5913    2.2565 H   0  0  0  0  0  0  0  0  0  0  0  0
    0.6418    2.8371   -4.8841 H   0  0  0  0  0  0  0  0  0  0  0  0
   -0.0453    3.1977   -3.2519 H   0  0  0  0  0  0  0  0  0  0  0  0
    1.3664    4.1236   -3.8350 H   0  0  0  0  0  0  0  0  0  0  0  0
  1  2  1  0
  2  3  3  0
  3  4  1  0
  4  5  1  0
  5  6  1  0
  6  7  1  0
  7  8  1  0
  8  9  1  0
  9 10  1  0
 10 11  1  0
 11 12  1  0
 12 13  1  0
 13 14  2  0
 13 15  1  0
 15 16  1  0
 16 17  1  0
 16 18  1  0
 16 19  1  0
 11 20  1  0
  6 21  2  0
 21 22  1  0
 22 23  2  0
 23 24  1  0
 24 25  2  0
 24 26  1  0
 26 27  1  0
 27 28  1  0
 28 29  2  0
 28 30  1  0
 30 31  2  0
 31 32  1  0
 32 33  2  0
 33 34  1  0
 34 35  2  0
 35 36  1  0
 26 37  1  0
 37 38  2  0
 37 39  1  0
 39 40  1  0
 23  5  1  0
 35 30  1  0
 20  7  1  0
 39 22  1  0
  1 41  1  0
  1 42  1  0
  1 43  1  0
  4 44  1  0
  4 45  1  0
  8 46  1  0
  8 47  1  0
  9 48  1  0
  9 49  1  0
 10 50  1  0
 10 51  1  0
 11 52  1  6
 12 53  1  0
 17 54  1  0
 17 55  1  0
 17 56  1  0
 18 57  1  0
 18 58  1  0
 18 59  1  0
 19 60  1  0
 19 61  1  0
 19 62  1  0
 20 63  1  0
 20 64  1  0
 27 65  1  0
 27 66  1  0
 31 67  1  0
 32 68  1  0
 33 69  1  0
 34 70  1  0
 40 71  1  0
 40 72  1  0
 40 73  1  0
M  END
$$$$
