
     RDKit          3D

 34 34  0  0  0  0  0  0  0  0999 V2000
   -1.4134    2.6777   -0.5094 C   0  0  0  0  0  0  0  0  0  0  0  0
   -1.9693    1.3958   -0.9504 N   0  0  0  0  0  0  0  0  0  0  0  0
   -1.2315    0.2493   -0.3827 C   0  0  2  0  0  0  0  0  0  0  0  0
    0.1391    0.1177   -1.0331 C   0  0  0  0  0  0  0  0  0  0  0  0
    0.2048    0.0393   -2.2908 O   0  0  0  0  0  0  0  0  0  0  0  0
    1.3572    0.0436   -0.2622 N   0  0  0  0  0  0  0  0  0  0  0  0
    2.6478   -0.1947   -0.8902 C   0  0  0  0  0  0  0  0  0  0  0  0
    3.6688   -0.1910    0.2393 C   0  0  0  0  0  0  0  0  0  0  0  0
    2.8646   -0.3967    1.5183 C   0  0  0  0  0  0  0  0  0  0  0  0
    1.4472    0.0737    1.1926 C   0  0  1  0  0  0  0  0  0  0  0  0
    1.2262    1.4442    1.6830 C   0  0  0  0  0  0  0  0  0  0  0  0
    1.0542    2.5213    2.0695 N   0  0  0  0  0  0  0  0  0  0  0  0
   -2.0559   -1.0532   -0.5783 C   0  0  0  0  0  0  0  0  0  0  0  0
   -3.4658   -0.9134    0.0193 C   0  0  0  0  0  0  0  0  0  0  0  0
   -1.3566   -2.2695    0.0530 C   0  0  0  0  0  0  0  0  0  0  0  0
   -2.0043    3.5057   -0.9542 H   0  0  0  0  0  0  0  0  0  0  0  0
   -0.3561    2.7883   -0.8340 H   0  0  0  0  0  0  0  0  0  0  0  0
   -1.4801    2.7668    0.5958 H   0  0  0  0  0  0  0  0  0  0  0  0
   -1.9471    1.3615   -1.9967 H   0  0  0  0  0  0  0  0  0  0  0  0
   -1.1307    0.4048    0.7117 H   0  0  0  0  0  0  0  0  0  0  0  0
    2.8751    0.6070   -1.6260 H   0  0  0  0  0  0  0  0  0  0  0  0
    2.6380   -1.1835   -1.3986 H   0  0  0  0  0  0  0  0  0  0  0  0
    4.4288   -0.9909    0.1042 H   0  0  0  0  0  0  0  0  0  0  0  0
    4.1784    0.7969    0.2785 H   0  0  0  0  0  0  0  0  0  0  0  0
    2.8419   -1.4828    1.7587 H   0  0  0  0  0  0  0  0  0  0  0  0
    3.3223    0.1427    2.3777 H   0  0  0  0  0  0  0  0  0  0  0  0
    0.7106   -0.6187    1.6519 H   0  0  0  0  0  0  0  0  0  0  0  0
   -2.1682   -1.2490   -1.6682 H   0  0  0  0  0  0  0  0  0  0  0  0
   -3.4096   -0.6761    1.1035 H   0  0  0  0  0  0  0  0  0  0  0  0
   -4.0351   -1.8586   -0.1107 H   0  0  0  0  0  0  0  0  0  0  0  0
   -4.0325   -0.1098   -0.4962 H   0  0  0  0  0  0  0  0  0  0  0  0
   -1.2225   -2.1206    1.1457 H   0  0  0  0  0  0  0  0  0  0  0  0
   -1.9626   -3.1866   -0.1084 H   0  0  0  0  0  0  0  0  0  0  0  0
   -0.3636   -2.4410   -0.4126 H   0  0  0  0  0  0  0  0  0  0  0  0
  1  2  1  0
  2  3  1  0
  3  4  1  0
  4  5  2  0
  4  6  1  0
  6  7  1  0
  7  8  1  0
  8  9  1  0
  9 10  1  0
 10 11  1  0
 11 12  3  0
  3 13  1  0
 13 14  1  0
 13 15  1  0
 10  6  1  0
  1 16  1  0
  1 17  1  0
  1 18  1  0
  2 19  1  0
  3 20  1  1
  7 21  1  0
  7 22  1  0
  8 23  1  0
  8 24  1  0
  9 25  1  0
  9 26  1  0
 10 27  1  1
 13 28  1  0
 14 29  1  0
 14 30  1  0
 14 31  1  0
 15 32  1  0
 15 33  1  0
 15 34  1  0
M  END
$$$$
