
     RDKit          3D

 55 56  0  0  0  0  0  0  0  0999 V2000
    1.3459    1.8768    0.6193 C   0  0  0  0  0  0  0  0  0  0  0  0
    0.8562    0.5204    1.1567 C   0  0  1  0  0  0  0  0  0  0  0  0
   -0.6137    0.3354    0.8146 C   0  0  0  0  0  0  0  0  0  0  0  0
   -1.0451    0.2761   -0.5226 C   0  0  0  0  0  0  0  0  0  0  0  0
   -2.3971    0.0982   -0.8247 C   0  0  0  0  0  0  0  0  0  0  0  0
   -3.3481   -0.0287    0.2014 C   0  0  0  0  0  0  0  0  0  0  0  0
   -4.7793   -0.2246   -0.1354 C   0  0  0  0  0  0  0  0  0  0  0  0
   -5.5361   -1.2228    0.5054 C   0  0  0  0  0  0  0  0  0  0  0  0
   -6.8829   -1.4080    0.1783 C   0  0  0  0  0  0  0  0  0  0  0  0
   -7.4859   -0.6033   -0.7913 C   0  0  0  0  0  0  0  0  0  0  0  0
   -6.7423    0.3869   -1.4380 C   0  0  0  0  0  0  0  0  0  0  0  0
   -5.3950    0.5757   -1.1152 C   0  0  0  0  0  0  0  0  0  0  0  0
   -2.9196    0.0364    1.5408 C   0  0  0  0  0  0  0  0  0  0  0  0
   -3.8126   -0.0378    2.5604 F   0  0  0  0  0  0  0  0  0  0  0  0
   -1.5657    0.2156    1.8408 C   0  0  0  0  0  0  0  0  0  0  0  0
    1.7233   -0.6636    0.6402 C   0  0  2  0  0  0  0  0  0  0  0  0
    1.2333   -1.9341    1.1861 N   0  0  0  0  0  0  0  0  0  0  0  0
    3.1703   -0.4785    1.0527 C   0  0  0  0  0  0  0  0  0  0  0  0
    3.4712   -0.5946    2.2726 O   0  0  0  0  0  0  0  0  0  0  0  0
    4.1977   -0.1342    0.1035 N   0  0  0  0  0  0  0  0  0  0  0  0
    4.0197   -0.0989   -1.3392 C   0  0  0  0  0  0  0  0  0  0  0  0
    5.4033    0.1646   -1.9194 C   0  0  0  0  0  0  0  0  0  0  0  0
    6.2459    0.6901   -0.7599 C   0  0  2  0  0  0  0  0  0  0  0  0
    7.5412    0.2049   -0.8260 F   0  0  0  0  0  0  0  0  0  0  0  0
    5.5477    0.2175    0.5087 C   0  0  0  0  0  0  0  0  0  0  0  0
    0.7375   -0.0147   -1.5538 O   0  0  0  0  0  0  0  0  0  0  0  0
    0.4673    0.0063   -0.3231 C   0  0  0  0  0  0  0  0  0  0  0  0
    1.4953   -0.0499    0.6133 O   0  0  0  0  0  0  0  0  0  0  0  0
   -0.9565    0.0316    0.1296 C   0  0  0  0  0  0  0  0  0  0  0  0
   -1.4639   -1.2539    0.1190 F   0  0  0  0  0  0  0  0  0  0  0  0
   -1.7080    0.8259   -0.7175 F   0  0  0  0  0  0  0  0  0  0  0  0
   -1.0358    0.5414    1.4127 F   0  0  0  0  0  0  0  0  0  0  0  0
    2.3648    2.1030    0.9981 H   0  0  0  0  0  0  0  0  0  0  0  0
    1.3715    1.8808   -0.4906 H   0  0  0  0  0  0  0  0  0  0  0  0
    0.6714    2.6899    0.9640 H   0  0  0  0  0  0  0  0  0  0  0  0
    0.9663    0.5585    2.2643 H   0  0  0  0  0  0  0  0  0  0  0  0
   -0.3355    0.3634   -1.3350 H   0  0  0  0  0  0  0  0  0  0  0  0
   -2.6990    0.0430   -1.8634 H   0  0  0  0  0  0  0  0  0  0  0  0
   -5.0813   -1.8698    1.2451 H   0  0  0  0  0  0  0  0  0  0  0  0
   -7.4582   -2.1793    0.6739 H   0  0  0  0  0  0  0  0  0  0  0  0
   -8.5284   -0.7484   -1.0432 H   0  0  0  0  0  0  0  0  0  0  0  0
   -7.2105    1.0098   -2.1892 H   0  0  0  0  0  0  0  0  0  0  0  0
   -4.8371    1.3547   -1.6199 H   0  0  0  0  0  0  0  0  0  0  0  0
   -1.2613    0.2648    2.8789 H   0  0  0  0  0  0  0  0  0  0  0  0
    1.6456   -0.7078   -0.4663 H   0  0  0  0  0  0  0  0  0  0  0  0
    0.3025   -2.1488    0.7608 H   0  0  0  0  0  0  0  0  0  0  0  0
    1.8674   -2.7005    0.8606 H   0  0  0  0  0  0  0  0  0  0  0  0
    3.3237    0.7232   -1.6117 H   0  0  0  0  0  0  0  0  0  0  0  0
    3.6286   -1.0721   -1.7074 H   0  0  0  0  0  0  0  0  0  0  0  0
    5.8345   -0.7887   -2.2974 H   0  0  0  0  0  0  0  0  0  0  0  0
    5.3596    0.8998   -2.7521 H   0  0  0  0  0  0  0  0  0  0  0  0
    6.2644    1.8019   -0.7866 H   0  0  0  0  0  0  0  0  0  0  0  0
    5.5260    1.0315    1.2657 H   0  0  0  0  0  0  0  0  0  0  0  0
    6.0528   -0.6783    0.9313 H   0  0  0  0  0  0  0  0  0  0  0  0
    2.4641   -0.0867    0.3198 H   0  0  0  0  0  0  0  0  0  0  0  0
  1  2  1  0
  2  3  1  0
  3  4  2  0
  4  5  1  0
  5  6  2  0
  6  7  1  0
  7  8  2  0
  8  9  1  0
  9 10  2  0
 10 11  1  0
 11 12  2  0
  6 13  1  0
 13 14  1  0
 13 15  2  0
  2 16  1  0
 16 17  1  0
 16 18  1  0
 18 19  2  0
 18 20  1  0
 20 21  1  0
 21 22  1  0
 22 23  1  0
 23 24  1  0
 23 25  1  0
 26 27  2  0
 27 28  1  0
 27 29  1  0
 29 30  1  0
 29 31  1  0
 29 32  1  0
 15  3  1  0
 25 20  1  0
 12  7  1  0
  1 33  1  0
  1 34  1  0
  1 35  1  0
  2 36  1  1
  4 37  1  0
  5 38  1  0
  8 39  1  0
  9 40  1  0
 10 41  1  0
 11 42  1  0
 12 43  1  0
 15 44  1  0
 16 45  1  6
 17 46  1  0
 17 47  1  0
 21 48  1  0
 21 49  1  0
 22 50  1  0
 22 51  1  0
 23 52  1  1
 25 53  1  0
 25 54  1  0
 28 55  1  0
M  END
$$$$
