
     RDKit          3D

 64 66  0  0  0  0  0  0  0  0999 V2000
   -1.6118   -4.3440    0.5730 C   0  0  0  0  0  0  0  0  0  0  0  0
   -1.3948   -2.9018    0.7303 N   0  0  0  0  0  0  0  0  0  0  0  0
   -1.1896   -2.3381    2.0695 C   0  0  0  0  0  0  0  0  0  0  0  0
   -1.3766   -2.0670   -0.4511 C   0  0  0  0  0  0  0  0  0  0  0  0
   -1.4878   -2.6074   -1.5870 O   0  0  0  0  0  0  0  0  0  0  0  0
   -1.1661   -0.5621   -0.3740 C   0  0  1  0  0  0  0  0  0  0  0  0
    0.3179   -0.2476   -0.4409 C   0  0  0  0  0  0  0  0  0  0  0  0
    0.9335    0.4686    0.5994 C   0  0  0  0  0  0  0  0  0  0  0  0
    2.2949    0.7772    0.5416 C   0  0  0  0  0  0  0  0  0  0  0  0
    3.0717    0.3803   -0.5605 C   0  0  0  0  0  0  0  0  0  0  0  0
    4.5187    0.7084   -0.6222 C   0  0  0  0  0  0  0  0  0  0  0  0
    5.4497   -0.2395   -1.1204 C   0  0  0  0  0  0  0  0  0  0  0  0
    6.8142    0.0818   -1.1740 C   0  0  0  0  0  0  0  0  0  0  0  0
    7.1980    1.3065   -0.7410 N   0  0  0  0  0  0  0  0  0  0  0  0
    8.4198    1.7978   -0.7112 N   0  0  0  0  0  0  0  0  0  0  0  0
    8.2742    3.0443   -0.2012 C   0  0  0  0  0  0  0  0  0  0  0  0
    6.9837    3.3536    0.0931 N   0  0  0  0  0  0  0  0  0  0  0  0
    6.3513    2.2226   -0.2664 C   0  0  0  0  0  0  0  0  0  0  0  0
    4.9849    1.9700   -0.1847 C   0  0  0  0  0  0  0  0  0  0  0  0
    2.4548   -0.3296   -1.6051 C   0  0  0  0  0  0  0  0  0  0  0  0
    1.0931   -0.6374   -1.5477 C   0  0  0  0  0  0  0  0  0  0  0  0
   -1.9587    0.2065   -1.4748 C   0  0  2  0  0  0  0  0  0  0  0  0
   -1.7226    1.6555   -1.4336 N   0  0  0  0  0  0  0  0  0  0  0  0
   -3.4454   -0.0894   -1.4114 C   0  0  0  0  0  0  0  0  0  0  0  0
   -3.9388   -0.8114   -2.3208 O   0  0  0  0  0  0  0  0  0  0  0  0
   -4.3020    0.3588   -0.3381 N   0  0  0  0  0  0  0  0  0  0  0  0
   -5.6388   -0.1841   -0.1500 C   0  0  0  0  0  0  0  0  0  0  0  0
   -6.3243    0.7259    0.8594 C   0  0  0  0  0  0  0  0  0  0  0  0
   -5.2051    1.5141    1.5303 C   0  0  2  0  0  0  0  0  0  0  0  0
   -5.5935    2.8208    1.7746 F   0  0  0  0  0  0  0  0  0  0  0  0
   -4.0249    1.4633    0.5685 C   0  0  0  0  0  0  0  0  0  0  0  0
    0.8432    0.8184   -1.2560 O   0  0  0  0  0  0  0  0  0  0  0  0
    0.4802    0.0991   -0.2871 C   0  0  0  0  0  0  0  0  0  0  0  0
    1.4235   -0.6443    0.4160 O   0  0  0  0  0  0  0  0  0  0  0  0
   -0.9508    0.0909    0.1433 C   0  0  0  0  0  0  0  0  0  0  0  0
   -1.2284   -1.0712    0.8397 F   0  0  0  0  0  0  0  0  0  0  0  0
   -1.7776    0.1607   -0.9634 F   0  0  0  0  0  0  0  0  0  0  0  0
   -1.1900    1.1791    0.9608 F   0  0  0  0  0  0  0  0  0  0  0  0
   -2.5871   -4.5229    0.0726 H   0  0  0  0  0  0  0  0  0  0  0  0
   -0.7984   -4.7798   -0.0448 H   0  0  0  0  0  0  0  0  0  0  0  0
   -1.6259   -4.8707    1.5501 H   0  0  0  0  0  0  0  0  0  0  0  0
   -0.2318   -1.7790    2.1023 H   0  0  0  0  0  0  0  0  0  0  0  0
   -2.0315   -1.6621    2.3275 H   0  0  0  0  0  0  0  0  0  0  0  0
   -1.1413   -3.1297    2.8461 H   0  0  0  0  0  0  0  0  0  0  0  0
   -1.5598   -0.2155    0.5985 H   0  0  0  0  0  0  0  0  0  0  0  0
    0.3602    0.7887    1.4606 H   0  0  0  0  0  0  0  0  0  0  0  0
    2.7435    1.3131    1.3685 H   0  0  0  0  0  0  0  0  0  0  0  0
    5.1258   -1.2197   -1.4463 H   0  0  0  0  0  0  0  0  0  0  0  0
    7.5402   -0.6293   -1.5475 H   0  0  0  0  0  0  0  0  0  0  0  0
    9.1006    3.7243   -0.0445 H   0  0  0  0  0  0  0  0  0  0  0  0
    4.3101    2.7305    0.1875 H   0  0  0  0  0  0  0  0  0  0  0  0
    3.0210   -0.6302   -2.4776 H   0  0  0  0  0  0  0  0  0  0  0  0
    0.6442   -1.1763   -2.3718 H   0  0  0  0  0  0  0  0  0  0  0  0
   -1.6012   -0.1579   -2.4662 H   0  0  0  0  0  0  0  0  0  0  0  0
   -1.5327    1.9693   -0.4553 H   0  0  0  0  0  0  0  0  0  0  0  0
   -0.8555    1.8689   -1.9788 H   0  0  0  0  0  0  0  0  0  0  0  0
   -6.2018   -0.1847   -1.1089 H   0  0  0  0  0  0  0  0  0  0  0  0
   -5.5649   -1.2210    0.2439 H   0  0  0  0  0  0  0  0  0  0  0  0
   -7.0090    1.4221    0.3262 H   0  0  0  0  0  0  0  0  0  0  0  0
   -6.9071    0.1395    1.6026 H   0  0  0  0  0  0  0  0  0  0  0  0
   -4.9298    1.0243    2.4906 H   0  0  0  0  0  0  0  0  0  0  0  0
   -3.9537    2.4096   -0.0100 H   0  0  0  0  0  0  0  0  0  0  0  0
   -3.0937    1.2916    1.1426 H   0  0  0  0  0  0  0  0  0  0  0  0
    2.4000   -0.6327    0.1467 H   0  0  0  0  0  0  0  0  0  0  0  0
  1  2  1  0
  2  3  1  0
  2  4  1  0
  4  5  2  0
  4  6  1  0
  6  7  1  0
  7  8  2  0
  8  9  1  0
  9 10  2  0
 10 11  1  0
 11 12  1  0
 12 13  2  0
 13 14  1  0
 14 15  1  0
 15 16  2  0
 16 17  1  0
 17 18  2  0
 18 19  1  0
 10 20  1  0
 20 21  2  0
  6 22  1  0
 22 23  1  0
 22 24  1  0
 24 25  2  0
 24 26  1  0
 26 27  1  0
 27 28  1  0
 28 29  1  0
 29 30  1  0
 29 31  1  0
 32 33  2  0
 33 34  1  0
 33 35  1  0
 35 36  1  0
 35 37  1  0
 35 38  1  0
 21  7  1  0
 31 26  1  0
 19 11  2  0
 18 14  1  0
  1 39  1  0
  1 40  1  0
  1 41  1  0
  3 42  1  0
  3 43  1  0
  3 44  1  0
  6 45  1  1
  8 46  1  0
  9 47  1  0
 12 48  1  0
 13 49  1  0
 16 50  1  0
 19 51  1  0
 20 52  1  0
 21 53  1  0
 22 54  1  6
 23 55  1  0
 23 56  1  0
 27 57  1  0
 27 58  1  0
 28 59  1  0
 28 60  1  0
 29 61  1  1
 31 62  1  0
 31 63  1  0
 34 64  1  0
M  END
$$$$
