
     RDKit          3D

 39 40  0  0  0  0  0  0  0  0999 V2000
   -1.7412   -2.5207   -1.6206 F   0  0  0  0  0  0  0  0  0  0  0  0
   -1.3556   -1.3709   -1.0013 C   0  0  0  0  0  0  0  0  0  0  0  0
    0.0096   -0.8357   -1.3576 C   0  0  0  0  0  0  0  0  0  0  0  0
    0.8996   -0.8873   -0.1879 N   0  0  0  0  0  0  0  0  0  0  0  0
    2.2424   -0.3621   -0.5035 C   0  0  0  0  0  0  0  0  0  0  0  0
    2.2106    1.1816   -0.6275 C   0  0  0  0  0  0  0  0  0  0  0  0
    3.5577    1.8412   -0.2701 C   0  0  0  0  0  0  0  0  0  0  0  0
    4.6873    0.9506   -0.5607 N   0  0  0  0  0  0  0  0  0  0  0  0
    4.6659   -0.2564    0.2869 C   0  0  0  0  0  0  0  0  0  0  0  0
    3.2425   -0.7758    0.5909 C   0  0  0  0  0  0  0  0  0  0  0  0
   -2.1935   -0.7718   -0.1162 C   0  0  0  0  0  0  0  0  0  0  0  0
   -3.4912   -1.4546    0.2763 C   0  0  0  0  0  0  0  0  0  0  0  0
   -4.6239   -0.4378    0.4534 C   0  0  0  0  0  0  0  0  0  0  0  0
   -4.2125    0.6943    1.3990 C   0  0  0  0  0  0  0  0  0  0  0  0
   -2.9741    1.4171    0.8616 C   0  0  0  0  0  0  0  0  0  0  0  0
   -1.7929    0.4554    0.6880 C   0  0  0  0  0  0  0  0  0  0  0  0
    0.4308   -1.4552   -2.1810 H   0  0  0  0  0  0  0  0  0  0  0  0
   -0.0964    0.2016   -1.7397 H   0  0  0  0  0  0  0  0  0  0  0  0
    0.9925   -1.8971    0.0769 H   0  0  0  0  0  0  0  0  0  0  0  0
    2.6045   -0.7985   -1.4640 H   0  0  0  0  0  0  0  0  0  0  0  0
    1.9444    1.4523   -1.6723 H   0  0  0  0  0  0  0  0  0  0  0  0
    1.4285    1.6050    0.0397 H   0  0  0  0  0  0  0  0  0  0  0  0
    3.6745    2.7832   -0.8480 H   0  0  0  0  0  0  0  0  0  0  0  0
    3.5702    2.1159    0.8084 H   0  0  0  0  0  0  0  0  0  0  0  0
    4.6410    0.6652   -1.5677 H   0  0  0  0  0  0  0  0  0  0  0  0
    5.1856   -0.0357    1.2440 H   0  0  0  0  0  0  0  0  0  0  0  0
    5.2464   -1.0607   -0.2171 H   0  0  0  0  0  0  0  0  0  0  0  0
    3.2739   -1.8834    0.6842 H   0  0  0  0  0  0  0  0  0  0  0  0
    2.9016   -0.3663    1.5680 H   0  0  0  0  0  0  0  0  0  0  0  0
   -3.8157   -2.1962   -0.4849 H   0  0  0  0  0  0  0  0  0  0  0  0
   -3.3310   -1.9988    1.2322 H   0  0  0  0  0  0  0  0  0  0  0  0
   -4.9016   -0.0143   -0.5372 H   0  0  0  0  0  0  0  0  0  0  0  0
   -5.5175   -0.9535    0.8664 H   0  0  0  0  0  0  0  0  0  0  0  0
   -4.0019    0.2844    2.4114 H   0  0  0  0  0  0  0  0  0  0  0  0
   -5.0499    1.4195    1.4880 H   0  0  0  0  0  0  0  0  0  0  0  0
   -2.6868    2.2255    1.5681 H   0  0  0  0  0  0  0  0  0  0  0  0
   -3.2144    1.8893   -0.1166 H   0  0  0  0  0  0  0  0  0  0  0  0
   -1.4351    0.1244    1.6868 H   0  0  0  0  0  0  0  0  0  0  0  0
   -0.9743    1.0264    0.2080 H   0  0  0  0  0  0  0  0  0  0  0  0
  1  2  1  0
  2  3  1  0
  3  4  1  0
  4  5  1  0
  5  6  1  0
  6  7  1  0
  7  8  1  0
  8  9  1  0
  9 10  1  0
  2 11  2  3
 11 12  1  0
 12 13  1  0
 13 14  1  0
 14 15  1  0
 15 16  1  0
 10  5  1  0
 16 11  1  0
  3 17  1  0
  3 18  1  0
  4 19  1  0
  5 20  1  0
  6 21  1  0
  6 22  1  0
  7 23  1  0
  7 24  1  0
  8 25  1  0
  9 26  1  0
  9 27  1  0
 10 28  1  0
 10 29  1  0
 12 30  1  0
 12 31  1  0
 13 32  1  0
 13 33  1  0
 14 34  1  0
 14 35  1  0
 15 36  1  0
 15 37  1  0
 16 38  1  0
 16 39  1  0
M  END
$$$$
