
     RDKit          3D

 47 51  0  0  0  0  0  0  0  0999 V2000
   -2.0858   -2.9316   -1.4916 N   0  0  0  0  0  0  0  0  0  0  0  0
   -2.9058   -2.2318   -1.0707 C   0  0  0  0  0  0  0  0  0  0  0  0
   -3.9472   -1.3408   -0.5333 C   0  0  2  0  0  0  0  0  0  0  0  0
   -4.1931   -0.1538   -1.4647 C   0  0  0  0  0  0  0  0  0  0  0  0
   -3.4214    1.0151   -0.8566 C   0  0  2  0  0  0  0  0  0  0  0  0
   -2.1778    1.1160   -1.4597 F   0  0  0  0  0  0  0  0  0  0  0  0
   -3.2538    0.6721    0.6191 C   0  0  0  0  0  0  0  0  0  0  0  0
   -3.4969   -0.7589    0.7227 N   0  0  0  0  0  0  0  0  0  0  0  0
   -3.3994   -1.5132    1.9473 C   0  0  0  0  0  0  0  0  0  0  0  0
   -3.8414   -2.6934    1.9889 O   0  0  0  0  0  0  0  0  0  0  0  0
   -2.7214   -0.9573    3.1709 C   0  0  0  0  0  0  0  0  0  0  0  0
   -1.3947   -1.5590    3.3419 N   0  0  0  0  0  0  0  0  0  0  0  0
   -0.4605   -1.0370    2.3307 C   0  0  1  0  0  0  0  0  0  0  0  0
    0.3419    0.1898    2.7554 C   0  0  2  0  0  0  0  0  0  0  0  0
    0.9544    1.0050    1.6248 C   0  0  0  0  0  0  0  0  0  0  0  0
    1.9148    0.1302    0.9769 N   0  0  0  0  0  0  0  0  0  0  0  0
    2.6828    0.5152   -0.1682 C   0  0  0  0  0  0  0  0  0  0  0  0
    2.5856    1.7412   -0.7488 N   0  0  0  0  0  0  0  0  0  0  0  0
    3.4675    1.6347   -1.7571 C   0  0  0  0  0  0  0  0  0  0  0  0
    3.7998    2.5962   -2.7085 C   0  0  0  0  0  0  0  0  0  0  0  0
    4.7615    2.2503   -3.6777 C   0  0  0  0  0  0  0  0  0  0  0  0
    5.3578    0.9674   -3.6693 C   0  0  0  0  0  0  0  0  0  0  0  0
    4.9972    0.0203   -2.6917 C   0  0  0  0  0  0  0  0  0  0  0  0
    4.0436    0.3997   -1.7515 C   0  0  0  0  0  0  0  0  0  0  0  0
    3.5499   -0.2904   -0.7600 O   0  0  0  0  0  0  0  0  0  0  0  0
    2.0095   -1.1828    1.5878 C   0  0  0  0  0  0  0  0  0  0  0  0
    1.0037   -1.1861    2.7312 C   0  0  2  0  0  0  0  0  0  0  0  0
   -4.8886   -1.9133   -0.3839 H   0  0  0  0  0  0  0  0  0  0  0  0
   -3.8853   -0.3486   -2.5166 H   0  0  0  0  0  0  0  0  0  0  0  0
   -5.2783    0.0912   -1.4606 H   0  0  0  0  0  0  0  0  0  0  0  0
   -3.9699    1.9729   -0.9889 H   0  0  0  0  0  0  0  0  0  0  0  0
   -4.0019    1.2210    1.2311 H   0  0  0  0  0  0  0  0  0  0  0  0
   -2.2292    0.9236    0.9624 H   0  0  0  0  0  0  0  0  0  0  0  0
   -2.6526    0.1513    3.1484 H   0  0  0  0  0  0  0  0  0  0  0  0
   -3.3480   -1.2126    4.0533 H   0  0  0  0  0  0  0  0  0  0  0  0
   -1.0661   -1.3275    4.3097 H   0  0  0  0  0  0  0  0  0  0  0  0
   -0.6877   -1.2058    1.2546 H   0  0  0  0  0  0  0  0  0  0  0  0
    0.2070    0.6128    3.7739 H   0  0  0  0  0  0  0  0  0  0  0  0
    1.4739    1.8950    2.0389 H   0  0  0  0  0  0  0  0  0  0  0  0
    0.1725    1.3227    0.9031 H   0  0  0  0  0  0  0  0  0  0  0  0
    3.3361    3.5742   -2.7040 H   0  0  0  0  0  0  0  0  0  0  0  0
    5.0458    2.9707   -4.4335 H   0  0  0  0  0  0  0  0  0  0  0  0
    6.0956    0.7120   -4.4187 H   0  0  0  0  0  0  0  0  0  0  0  0
    5.4440   -0.9650   -2.6720 H   0  0  0  0  0  0  0  0  0  0  0  0
    1.7598   -1.9739    0.8485 H   0  0  0  0  0  0  0  0  0  0  0  0
    3.0347   -1.3416    1.9845 H   0  0  0  0  0  0  0  0  0  0  0  0
    1.2672   -1.5762    3.7379 H   0  0  0  0  0  0  0  0  0  0  0  0
  1  2  3  0
  2  3  1  0
  3  4  1  0
  4  5  1  0
  5  6  1  0
  5  7  1  0
  7  8  1  0
  8  9  1  0
  9 10  2  0
  9 11  1  0
 11 12  1  0
 12 13  1  0
 13 14  1  0
 14 15  1  0
 15 16  1  0
 16 17  1  0
 17 18  2  0
 18 19  1  0
 19 20  2  0
 20 21  1  0
 21 22  2  0
 22 23  1  0
 23 24  2  0
 24 25  1  0
 16 26  1  0
 26 27  1  0
  8  3  1  0
 27 13  1  0
 27 14  1  0
 25 17  1  0
 24 19  1  0
  3 28  1  1
  4 29  1  0
  4 30  1  0
  5 31  1  1
  7 32  1  0
  7 33  1  0
 11 34  1  0
 11 35  1  0
 12 36  1  0
 13 37  1  6
 14 38  1  1
 15 39  1  0
 15 40  1  0
 20 41  1  0
 21 42  1  0
 22 43  1  0
 23 44  1  0
 26 45  1  0
 26 46  1  0
 27 47  1  1
M  END
$$$$
