
     RDKit          3D

 49 52  0  0  0  0  0  0  0  0999 V2000
    5.5914    3.5640   -2.0458 N   0  0  0  0  0  0  0  0  0  0  0  0
    5.0082    3.1705   -1.1270 C   0  0  0  0  0  0  0  0  0  0  0  0
    4.2656    2.6691    0.0414 C   0  0  2  0  0  0  0  0  0  0  0  0
    5.2159    2.2852    1.1739 C   0  0  0  0  0  0  0  0  0  0  0  0
    5.3805    0.7718    1.0758 C   0  0  2  0  0  0  0  0  0  0  0  0
    6.5213    0.4739    0.3477 F   0  0  0  0  0  0  0  0  0  0  0  0
    4.1451    0.2711    0.3344 C   0  0  0  0  0  0  0  0  0  0  0  0
    3.5606    1.4425   -0.3065 N   0  0  0  0  0  0  0  0  0  0  0  0
    2.3676    1.4421   -1.1237 C   0  0  0  0  0  0  0  0  0  0  0  0
    2.0156    2.5099   -1.6951 O   0  0  0  0  0  0  0  0  0  0  0  0
    1.4795    0.2296   -1.2873 C   0  0  2  0  0  0  0  0  0  0  0  0
    0.7200   -0.1375    0.0093 C   0  0  0  0  0  0  0  0  0  0  0  0
    0.8767   -1.6652    0.2049 C   0  0  1  0  0  0  0  0  0  0  0  0
   -0.4357   -2.4390   -0.0208 C   0  0  0  0  0  0  0  0  0  0  0  0
   -1.4510   -2.1208    1.0461 C   0  0  0  0  0  0  0  0  0  0  0  0
   -1.2047   -2.4607    2.2352 O   0  0  0  0  0  0  0  0  0  0  0  0
   -2.6800   -1.4345    0.7471 N   0  0  0  0  0  0  0  0  0  0  0  0
   -3.1569   -1.1073   -0.6000 C   0  0  0  0  0  0  0  0  0  0  0  0
   -4.4606   -0.4501   -0.3443 C   0  0  0  0  0  0  0  0  0  0  0  0
   -5.3548    0.0727   -1.2794 C   0  0  0  0  0  0  0  0  0  0  0  0
   -6.5437    0.6589   -0.8158 C   0  0  0  0  0  0  0  0  0  0  0  0
   -6.8175    0.7127    0.5658 C   0  0  0  0  0  0  0  0  0  0  0  0
   -8.3049    1.4468    1.1354 Cl  0  0  0  0  0  0  0  0  0  0  0  0
   -5.9013    0.1795    1.4885 C   0  0  0  0  0  0  0  0  0  0  0  0
   -4.7267   -0.3978    1.0039 C   0  0  0  0  0  0  0  0  0  0  0  0
   -3.6279   -1.0168    1.7827 C   0  0  0  0  0  0  0  0  0  0  0  0
    1.8784   -2.0269   -0.8284 C   0  0  0  0  0  0  0  0  0  0  0  0
    2.3765   -3.1766   -0.9560 O   0  0  0  0  0  0  0  0  0  0  0  0
    2.2371   -0.9474   -1.6618 N   0  0  0  0  0  0  0  0  0  0  0  0
    3.5495    3.4453    0.3896 H   0  0  0  0  0  0  0  0  0  0  0  0
    4.7374    2.5323    2.1475 H   0  0  0  0  0  0  0  0  0  0  0  0
    6.1953    2.8120    1.1245 H   0  0  0  0  0  0  0  0  0  0  0  0
    5.4614    0.3102    2.0840 H   0  0  0  0  0  0  0  0  0  0  0  0
    3.4267   -0.1684    1.0567 H   0  0  0  0  0  0  0  0  0  0  0  0
    4.4367   -0.4856   -0.4236 H   0  0  0  0  0  0  0  0  0  0  0  0
    0.7350    0.4253   -2.0915 H   0  0  0  0  0  0  0  0  0  0  0  0
   -0.3428    0.1740   -0.0718 H   0  0  0  0  0  0  0  0  0  0  0  0
    1.1441    0.3905    0.8911 H   0  0  0  0  0  0  0  0  0  0  0  0
    1.2916   -1.8895    1.2127 H   0  0  0  0  0  0  0  0  0  0  0  0
   -0.2281   -3.5304    0.0213 H   0  0  0  0  0  0  0  0  0  0  0  0
   -0.8290   -2.2240   -1.0361 H   0  0  0  0  0  0  0  0  0  0  0  0
   -2.4632   -0.4015   -1.1032 H   0  0  0  0  0  0  0  0  0  0  0  0
   -3.3005   -2.0328   -1.1973 H   0  0  0  0  0  0  0  0  0  0  0  0
   -5.1376    0.0281   -2.3387 H   0  0  0  0  0  0  0  0  0  0  0  0
   -7.2497    1.0699   -1.5259 H   0  0  0  0  0  0  0  0  0  0  0  0
   -6.0994    0.2143    2.5522 H   0  0  0  0  0  0  0  0  0  0  0  0
   -3.1591   -0.2705    2.4590 H   0  0  0  0  0  0  0  0  0  0  0  0
   -3.9995   -1.8978    2.3483 H   0  0  0  0  0  0  0  0  0  0  0  0
    2.8569   -1.0210   -2.4994 H   0  0  0  0  0  0  0  0  0  0  0  0
  1  2  3  0
  2  3  1  0
  3  4  1  0
  4  5  1  0
  5  6  1  0
  5  7  1  0
  7  8  1  0
  8  9  1  0
  9 10  2  0
  9 11  1  0
 11 12  1  0
 12 13  1  0
 13 14  1  0
 14 15  1  0
 15 16  2  0
 15 17  1  0
 17 18  1  0
 18 19  1  0
 19 20  2  0
 20 21  1  0
 21 22  2  0
 22 23  1  0
 22 24  1  0
 24 25  2  0
 25 26  1  0
 13 27  1  0
 27 28  2  0
 27 29  1  0
  8  3  1  0
 29 11  1  0
 26 17  1  0
 25 19  1  0
  3 30  1  1
  4 31  1  0
  4 32  1  0
  5 33  1  1
  7 34  1  0
  7 35  1  0
 11 36  1  6
 12 37  1  0
 12 38  1  0
 13 39  1  1
 14 40  1  0
 14 41  1  0
 18 42  1  0
 18 43  1  0
 20 44  1  0
 21 45  1  0
 24 46  1  0
 26 47  1  0
 26 48  1  0
 29 49  1  0
M  END
$$$$
