
     RDKit          3D

 69 73  0  0  0  0  0  0  0  0999 V2000
   -7.7272   -2.4730   -2.3667 C   0  0  0  0  0  0  0  0  0  0  0  0
   -6.9291   -1.7173   -1.2965 C   0  0  0  0  0  0  0  0  0  0  0  0
   -5.5107   -1.2178   -1.7179 C   0  0  0  0  0  0  0  0  0  0  0  0
   -5.6297   -0.2333   -2.9025 C   0  0  0  0  0  0  0  0  0  0  0  0
   -4.6235   -2.4206   -2.1088 C   0  0  0  0  0  0  0  0  0  0  0  0
   -4.9146   -0.5220   -0.5562 N   0  0  0  0  0  0  0  0  0  0  0  0
   -3.6138    0.0884   -0.5115 C   0  0  0  0  0  0  0  0  0  0  0  0
   -2.8607    0.0735   -1.5210 O   0  0  0  0  0  0  0  0  0  0  0  0
   -3.2024    0.7017    0.6815 O   0  0  0  0  0  0  0  0  0  0  0  0
   -1.9433    1.3482    0.9202 C   0  0  0  0  0  0  0  0  0  0  0  0
   -1.7362    2.5507   -0.0416 C   0  0  0  0  0  0  0  0  0  0  0  0
   -0.4045    3.2623    0.2854 C   0  0  0  0  0  0  0  0  0  0  0  0
   -0.4398    3.7809    1.7361 C   0  0  0  0  0  0  0  0  0  0  0  0
   -0.6399    2.5943    2.6989 C   0  0  0  0  0  0  0  0  0  0  0  0
    0.5268    1.6009    2.5388 C   0  0  0  0  0  0  0  0  0  0  0  0
    0.5917    1.0571    1.0813 C   0  0  0  0  0  0  0  0  0  0  0  0
    1.7197    0.0940    0.9995 N   0  0  0  0  0  0  0  0  0  0  0  0
    2.1011   -0.3277   -0.3579 C   0  0  0  0  0  0  0  0  0  0  0  0
    2.9898   -1.5347   -0.2709 C   0  0  0  0  0  0  0  0  0  0  0  0
    2.4579   -2.6773   -0.2344 O   0  0  0  0  0  0  0  0  0  0  0  0
    4.4196   -1.4140   -0.1720 N   0  0  0  0  0  0  0  0  0  0  0  0
    5.3070   -2.5669   -0.0035 C   0  0  0  0  0  0  0  0  0  0  0  0
    6.6530   -1.9487    0.0576 C   0  0  0  0  0  0  0  0  0  0  0  0
    7.8839   -2.5877    0.2160 C   0  0  0  0  0  0  0  0  0  0  0  0
    9.0476   -1.8022    0.2482 C   0  0  0  0  0  0  0  0  0  0  0  0
    8.9623   -0.4021    0.1226 C   0  0  0  0  0  0  0  0  0  0  0  0
    7.7129    0.2193   -0.0359 C   0  0  0  0  0  0  0  0  0  0  0  0
    6.5697   -0.5811   -0.0649 C   0  0  0  0  0  0  0  0  0  0  0  0
    5.1601   -0.1498   -0.2219 C   0  0  0  0  0  0  0  0  0  0  0  0
    0.7676    2.2692    0.1153 C   0  0  0  0  0  0  0  0  0  0  0  0
   -0.7618    0.3488    0.7765 C   0  0  0  0  0  0  0  0  0  0  0  0
   -1.9657    1.8805    2.3727 C   0  0  0  0  0  0  0  0  0  0  0  0
   -7.9282   -1.8328   -3.2490 H   0  0  0  0  0  0  0  0  0  0  0  0
   -7.2071   -3.4003   -2.6799 H   0  0  0  0  0  0  0  0  0  0  0  0
   -8.7088   -2.7697   -1.9404 H   0  0  0  0  0  0  0  0  0  0  0  0
   -7.5386   -0.8452   -0.9715 H   0  0  0  0  0  0  0  0  0  0  0  0
   -6.8300   -2.3855   -0.4124 H   0  0  0  0  0  0  0  0  0  0  0  0
   -6.2998    0.6118   -2.6360 H   0  0  0  0  0  0  0  0  0  0  0  0
   -4.6445    0.1846   -3.1879 H   0  0  0  0  0  0  0  0  0  0  0  0
   -6.0295   -0.7370   -3.8064 H   0  0  0  0  0  0  0  0  0  0  0  0
   -5.0176   -2.9365   -3.0082 H   0  0  0  0  0  0  0  0  0  0  0  0
   -3.5915   -2.1044   -2.3572 H   0  0  0  0  0  0  0  0  0  0  0  0
   -4.5699   -3.1488   -1.2713 H   0  0  0  0  0  0  0  0  0  0  0  0
   -5.4684   -0.4555    0.3286 H   0  0  0  0  0  0  0  0  0  0  0  0
   -1.7114    2.2169   -1.0996 H   0  0  0  0  0  0  0  0  0  0  0  0
   -2.5818    3.2666    0.0572 H   0  0  0  0  0  0  0  0  0  0  0  0
   -0.2647    4.1201   -0.4081 H   0  0  0  0  0  0  0  0  0  0  0  0
    0.5092    4.3097    1.9746 H   0  0  0  0  0  0  0  0  0  0  0  0
   -1.2677    4.5136    1.8583 H   0  0  0  0  0  0  0  0  0  0  0  0
   -0.6680    2.9679    3.7457 H   0  0  0  0  0  0  0  0  0  0  0  0
    0.4006    0.7582    3.2547 H   0  0  0  0  0  0  0  0  0  0  0  0
    1.4789    2.1130    2.8026 H   0  0  0  0  0  0  0  0  0  0  0  0
    2.5682    0.5269    1.4355 H   0  0  0  0  0  0  0  0  0  0  0  0
    1.2154   -0.6010   -0.9640 H   0  0  0  0  0  0  0  0  0  0  0  0
    2.6288    0.4923   -0.8889 H   0  0  0  0  0  0  0  0  0  0  0  0
    5.2290   -3.2482   -0.8774 H   0  0  0  0  0  0  0  0  0  0  0  0
    5.0779   -3.0978    0.9450 H   0  0  0  0  0  0  0  0  0  0  0  0
    7.9412   -3.6642    0.3120 H   0  0  0  0  0  0  0  0  0  0  0  0
   10.0135   -2.2748    0.3701 H   0  0  0  0  0  0  0  0  0  0  0  0
    9.8629    0.1974    0.1481 H   0  0  0  0  0  0  0  0  0  0  0  0
    7.6392    1.2947   -0.1333 H   0  0  0  0  0  0  0  0  0  0  0  0
    5.0174    0.3476   -1.2047 H   0  0  0  0  0  0  0  0  0  0  0  0
    4.8629    0.5129    0.6176 H   0  0  0  0  0  0  0  0  0  0  0  0
    1.7319    2.7845    0.3201 H   0  0  0  0  0  0  0  0  0  0  0  0
    0.7849    1.9327   -0.9437 H   0  0  0  0  0  0  0  0  0  0  0  0
   -0.7575   -0.0609   -0.2501 H   0  0  0  0  0  0  0  0  0  0  0  0
   -0.9062   -0.5095    1.4696 H   0  0  0  0  0  0  0  0  0  0  0  0
   -2.1243    1.0399    3.0842 H   0  0  0  0  0  0  0  0  0  0  0  0
   -2.8146    2.5872    2.5066 H   0  0  0  0  0  0  0  0  0  0  0  0
  1  2  1  0
  2  3  1  0
  3  4  1  0
  3  5  1  0
  3  6  1  0
  6  7  1  0
  7  8  2  0
  7  9  1  0
  9 10  1  0
 10 11  1  0
 11 12  1  0
 12 13  1  0
 13 14  1  0
 14 15  1  0
 15 16  1  0
 16 17  1  0
 17 18  1  0
 18 19  1  0
 19 20  2  0
 19 21  1  0
 21 22  1  0
 22 23  1  0
 23 24  2  0
 24 25  1  0
 25 26  2  0
 26 27  1  0
 27 28  2  0
 28 29  1  0
 16 30  1  0
 16 31  1  0
 14 32  1  0
 31 10  1  0
 32 10  1  0
 30 12  1  0
 29 21  1  0
 28 23  1  0
  1 33  1  0
  1 34  1  0
  1 35  1  0
  2 36  1  0
  2 37  1  0
  4 38  1  0
  4 39  1  0
  4 40  1  0
  5 41  1  0
  5 42  1  0
  5 43  1  0
  6 44  1  0
 11 45  1  0
 11 46  1  0
 12 47  1  0
 13 48  1  0
 13 49  1  0
 14 50  1  0
 15 51  1  0
 15 52  1  0
 17 53  1  0
 18 54  1  0
 18 55  1  0
 22 56  1  0
 22 57  1  0
 24 58  1  0
 25 59  1  0
 26 60  1  0
 27 61  1  0
 29 62  1  0
 29 63  1  0
 30 64  1  0
 30 65  1  0
 31 66  1  0
 31 67  1  0
 32 68  1  0
 32 69  1  0
M  END
$$$$
