
     RDKit          3D

 47 48  0  0  0  0  0  0  0  0999 V2000
   -4.9918    1.2935    1.1275 C   0  0  0  0  0  0  0  0  0  0  0  0
   -4.6822    0.1127    0.1759 C   0  0  0  0  0  0  0  0  0  0  0  0
   -5.2031    0.4923   -1.2273 C   0  0  0  0  0  0  0  0  0  0  0  0
   -5.4543   -1.1206    0.6933 C   0  0  0  0  0  0  0  0  0  0  0  0
   -3.1778   -0.2194    0.0932 C   0  0  0  0  0  0  0  0  0  0  0  0
   -2.7416   -1.2783   -0.7345 C   0  0  0  0  0  0  0  0  0  0  0  0
   -1.3879   -1.6066   -0.8360 C   0  0  0  0  0  0  0  0  0  0  0  0
   -0.4285   -0.8900   -0.1110 C   0  0  0  0  0  0  0  0  0  0  0  0
    1.0361   -1.2239   -0.2373 C   0  0  0  0  0  0  0  0  0  0  0  0
    1.7657   -0.2517   -1.1839 C   0  0  2  0  0  0  0  0  0  0  0  0
    1.3380   -0.4661   -2.5698 N   0  0  0  0  0  0  0  0  0  0  0  0
    3.2574   -0.4703   -1.0591 C   0  0  0  0  0  0  0  0  0  0  0  0
    3.8234   -1.2957   -1.8279 O   0  0  0  0  0  0  0  0  0  0  0  0
    4.0250    0.1728   -0.0207 N   0  0  0  0  0  0  0  0  0  0  0  0
    3.5651    1.3323    0.7276 C   0  0  0  0  0  0  0  0  0  0  0  0
    4.7859    1.8522    1.4762 C   0  0  1  0  0  0  0  0  0  0  0  0
    4.4547    2.2249    2.7684 F   0  0  0  0  0  0  0  0  0  0  0  0
    5.7983    0.7096    1.4757 C   0  0  0  0  0  0  0  0  0  0  0  0
    5.3937   -0.2000    0.3131 C   0  0  1  0  0  0  0  0  0  0  0  0
    5.4706   -1.6192    0.7014 C   0  0  0  0  0  0  0  0  0  0  0  0
    5.5301   -2.7341    1.0060 N   0  0  0  0  0  0  0  0  0  0  0  0
   -0.8409    0.1670    0.7093 C   0  0  0  0  0  0  0  0  0  0  0  0
   -2.1943    0.4989    0.8141 C   0  0  0  0  0  0  0  0  0  0  0  0
   -4.4901    2.2231    0.7818 H   0  0  0  0  0  0  0  0  0  0  0  0
   -6.0843    1.4975    1.1601 H   0  0  0  0  0  0  0  0  0  0  0  0
   -4.6650    1.0626    2.1645 H   0  0  0  0  0  0  0  0  0  0  0  0
   -4.6287    1.3532   -1.6327 H   0  0  0  0  0  0  0  0  0  0  0  0
   -6.2769    0.7772   -1.1856 H   0  0  0  0  0  0  0  0  0  0  0  0
   -5.1118   -0.3540   -1.9397 H   0  0  0  0  0  0  0  0  0  0  0  0
   -5.3665   -1.9799   -0.0038 H   0  0  0  0  0  0  0  0  0  0  0  0
   -5.0618   -1.4339    1.6849 H   0  0  0  0  0  0  0  0  0  0  0  0
   -6.5366   -0.8911    0.8025 H   0  0  0  0  0  0  0  0  0  0  0  0
   -3.4482   -1.8584   -1.3121 H   0  0  0  0  0  0  0  0  0  0  0  0
   -1.0881   -2.4194   -1.4860 H   0  0  0  0  0  0  0  0  0  0  0  0
    1.4945   -1.1765    0.7757 H   0  0  0  0  0  0  0  0  0  0  0  0
    1.1673   -2.2683   -0.5984 H   0  0  0  0  0  0  0  0  0  0  0  0
    1.5203    0.7938   -0.8971 H   0  0  0  0  0  0  0  0  0  0  0  0
    0.3349   -0.1839   -2.6570 H   0  0  0  0  0  0  0  0  0  0  0  0
    1.8679    0.1961   -3.1829 H   0  0  0  0  0  0  0  0  0  0  0  0
    3.1866    2.1178    0.0382 H   0  0  0  0  0  0  0  0  0  0  0  0
    2.7633    1.0256    1.4338 H   0  0  0  0  0  0  0  0  0  0  0  0
    5.2126    2.7271    0.9377 H   0  0  0  0  0  0  0  0  0  0  0  0
    6.8327    1.0945    1.3404 H   0  0  0  0  0  0  0  0  0  0  0  0
    5.7432    0.1740    2.4511 H   0  0  0  0  0  0  0  0  0  0  0  0
    6.0516   -0.0185   -0.5645 H   0  0  0  0  0  0  0  0  0  0  0  0
   -0.1102    0.7385    1.2688 H   0  0  0  0  0  0  0  0  0  0  0  0
   -2.4486    1.3228    1.4636 H   0  0  0  0  0  0  0  0  0  0  0  0
  1  2  1  0
  2  3  1  0
  2  4  1  0
  2  5  1  0
  5  6  2  0
  6  7  1  0
  7  8  2  0
  8  9  1  0
  9 10  1  0
 10 11  1  0
 10 12  1  0
 12 13  2  0
 12 14  1  0
 14 15  1  0
 15 16  1  0
 16 17  1  0
 16 18  1  0
 18 19  1  0
 19 20  1  0
 20 21  3  0
  8 22  1  0
 22 23  2  0
 23  5  1  0
 19 14  1  0
  1 24  1  0
  1 25  1  0
  1 26  1  0
  3 27  1  0
  3 28  1  0
  3 29  1  0
  4 30  1  0
  4 31  1  0
  4 32  1  0
  6 33  1  0
  7 34  1  0
  9 35  1  0
  9 36  1  0
 10 37  1  1
 11 38  1  0
 11 39  1  0
 15 40  1  0
 15 41  1  0
 16 42  1  6
 18 43  1  0
 18 44  1  0
 19 45  1  6
 22 46  1  0
 23 47  1  0
M  END
$$$$
