
     RDKit          3D

 61 61  0  0  0  0  0  0  0  0999 V2000
    6.6889   -2.3669    2.0234 C   0  0  0  0  0  0  0  0  0  0  0  0
    5.7497   -1.6127    2.7795 O   0  0  0  0  0  0  0  0  0  0  0  0
    5.4092   -0.2958    2.4580 C   0  0  0  0  0  0  0  0  0  0  0  0
    5.9535    0.2905    1.4829 O   0  0  0  0  0  0  0  0  0  0  0  0
    4.3938    0.4277    3.2840 C   0  0  0  0  0  0  0  0  0  0  0  0
    3.3210    0.8945    2.4662 O   0  0  0  0  0  0  0  0  0  0  0  0
    2.3488    0.0823    1.8588 C   0  0  0  0  0  0  0  0  0  0  0  0
    2.2856   -1.3074    2.0652 C   0  0  0  0  0  0  0  0  0  0  0  0
    1.3002   -2.0679    1.4350 C   0  0  0  0  0  0  0  0  0  0  0  0
    0.3656   -1.4561    0.5948 C   0  0  0  0  0  0  0  0  0  0  0  0
   -0.5816   -2.2120   -0.0091 N   0  0  0  0  0  0  0  0  0  0  0  0
   -1.5258   -1.6925   -0.8356 C   0  0  0  0  0  0  0  0  0  0  0  0
   -2.5321   -2.6527   -1.4260 C   0  0  0  0  0  0  0  0  0  0  0  0
   -3.8058   -2.7670   -0.5581 C   0  0  0  0  0  0  0  0  0  0  0  0
   -3.5191   -3.4659    0.7793 C   0  0  0  0  0  0  0  0  0  0  0  0
   -4.8979   -3.5257   -1.3217 C   0  0  0  0  0  0  0  0  0  0  0  0
   -1.5506   -0.2951   -1.0859 C   0  0  0  0  0  0  0  0  0  0  0  0
   -2.5634    0.3025   -2.0497 C   0  0  0  0  0  0  0  0  0  0  0  0
   -2.0992    0.1430   -3.4239 N   0  0  0  0  0  0  0  0  0  0  0  0
   -0.5560    0.5204   -0.4813 C   0  0  0  0  0  0  0  0  0  0  0  0
   -0.5190    1.9763   -0.7473 C   0  0  0  0  0  0  0  0  0  0  0  0
    0.2904    2.4846   -1.7725 C   0  0  0  0  0  0  0  0  0  0  0  0
    0.3338    3.8602   -2.0161 C   0  0  0  0  0  0  0  0  0  0  0  0
   -0.4382    4.7406   -1.2420 C   0  0  0  0  0  0  0  0  0  0  0  0
   -0.3607    6.2198   -1.4774 C   0  0  0  0  0  0  0  0  0  0  0  0
   -1.2287    4.2311   -0.2000 C   0  0  0  0  0  0  0  0  0  0  0  0
   -1.2722    2.8553    0.0435 C   0  0  0  0  0  0  0  0  0  0  0  0
    0.4073   -0.0645    0.3757 C   0  0  0  0  0  0  0  0  0  0  0  0
    1.4096    0.6938    1.0197 C   0  0  0  0  0  0  0  0  0  0  0  0
    0.6878    0.0000    0.0000 Cl  0  0  0  0  0  0  0  0  0  0  0  0
    0.6878    0.0000    0.0000 Cl  0  0  0  0  0  0  0  0  0  0  0  0
    7.6801   -1.8661    2.0395 H   0  0  0  0  0  0  0  0  0  0  0  0
    6.7889   -3.3773    2.4700 H   0  0  0  0  0  0  0  0  0  0  0  0
    6.3370   -2.4700    0.9750 H   0  0  0  0  0  0  0  0  0  0  0  0
    4.8848    1.3033    3.7574 H   0  0  0  0  0  0  0  0  0  0  0  0
    4.0068   -0.2203    4.0992 H   0  0  0  0  0  0  0  0  0  0  0  0
    2.9892   -1.8117    2.7117 H   0  0  0  0  0  0  0  0  0  0  0  0
    1.2636   -3.1375    1.6023 H   0  0  0  0  0  0  0  0  0  0  0  0
   -2.0633   -3.6567   -1.5273 H   0  0  0  0  0  0  0  0  0  0  0  0
   -2.7920   -2.3418   -2.4597 H   0  0  0  0  0  0  0  0  0  0  0  0
   -4.1953   -1.7499   -0.3355 H   0  0  0  0  0  0  0  0  0  0  0  0
   -2.8111   -2.8655    1.3877 H   0  0  0  0  0  0  0  0  0  0  0  0
   -3.0866   -4.4756    0.6111 H   0  0  0  0  0  0  0  0  0  0  0  0
   -4.4567   -3.5724    1.3657 H   0  0  0  0  0  0  0  0  0  0  0  0
   -5.1469   -2.9931   -2.2644 H   0  0  0  0  0  0  0  0  0  0  0  0
   -5.8232   -3.5881   -0.7099 H   0  0  0  0  0  0  0  0  0  0  0  0
   -4.5600   -4.5552   -1.5687 H   0  0  0  0  0  0  0  0  0  0  0  0
   -3.5499   -0.1904   -1.9355 H   0  0  0  0  0  0  0  0  0  0  0  0
   -2.7553    1.3760   -1.8401 H   0  0  0  0  0  0  0  0  0  0  0  0
   -2.8536    0.4920   -4.0583 H   0  0  0  0  0  0  0  0  0  0  0  0
   -1.2764    0.7720   -3.5676 H   0  0  0  0  0  0  0  0  0  0  0  0
    0.8890    1.8155   -2.3783 H   0  0  0  0  0  0  0  0  0  0  0  0
    0.9693    4.2387   -2.8072 H   0  0  0  0  0  0  0  0  0  0  0  0
   -1.3182    6.7110   -1.2018 H   0  0  0  0  0  0  0  0  0  0  0  0
    0.4571    6.6491   -0.8618 H   0  0  0  0  0  0  0  0  0  0  0  0
   -0.1601    6.4360   -2.5485 H   0  0  0  0  0  0  0  0  0  0  0  0
   -1.8108    4.8985    0.4235 H   0  0  0  0  0  0  0  0  0  0  0  0
   -1.8896    2.4739    0.8475 H   0  0  0  0  0  0  0  0  0  0  0  0
    1.4760    1.7651    0.8797 H   0  0  0  0  0  0  0  0  0  0  0  0
   -0.6878    0.0000    0.0000 H   0  0  0  0  0  0  0  0  0  0  0  0
   -0.6878    0.0000    0.0000 H   0  0  0  0  0  0  0  0  0  0  0  0
  1  2  1  0
  2  3  1  0
  3  4  2  0
  3  5  1  0
  5  6  1  0
  6  7  1  0
  7  8  2  0
  8  9  1  0
  9 10  2  0
 10 11  1  0
 11 12  2  0
 12 13  1  0
 13 14  1  0
 14 15  1  0
 14 16  1  0
 12 17  1  0
 17 18  1  0
 18 19  1  0
 17 20  2  0
 20 21  1  0
 21 22  2  0
 22 23  1  0
 23 24  2  0
 24 25  1  0
 24 26  1  0
 26 27  2  0
 20 28  1  0
 28 29  2  0
 29  7  1  0
 28 10  1  0
 27 21  1  0
  1 32  1  0
  1 33  1  0
  1 34  1  0
  5 35  1  0
  5 36  1  0
  8 37  1  0
  9 38  1  0
 13 39  1  0
 13 40  1  0
 14 41  1  0
 15 42  1  0
 15 43  1  0
 15 44  1  0
 16 45  1  0
 16 46  1  0
 16 47  1  0
 18 48  1  0
 18 49  1  0
 19 50  1  0
 19 51  1  0
 22 52  1  0
 23 53  1  0
 25 54  1  0
 25 55  1  0
 25 56  1  0
 26 57  1  0
 27 58  1  0
 29 59  1  0
 30 60  1  0
 31 61  1  0
M  END
$$$$
