
     RDKit          3D

 47 49  0  0  0  0  0  0  0  0999 V2000
   -1.3070    3.5791    1.0088 C   0  0  0  0  0  0  0  0  0  0  0  0
   -0.7730    2.6383   -0.0783 C   0  0  0  0  0  0  0  0  0  0  0  0
   -0.6284    3.3679   -1.4191 C   0  0  0  0  0  0  0  0  0  0  0  0
   -1.6546    1.4019   -0.2198 C   0  0  0  0  0  0  0  0  0  0  0  0
   -3.0041    1.5509   -0.5882 C   0  0  0  0  0  0  0  0  0  0  0  0
   -3.8330    0.4410   -0.7217 C   0  0  0  0  0  0  0  0  0  0  0  0
   -3.3349   -0.8385   -0.4948 C   0  0  0  0  0  0  0  0  0  0  0  0
   -1.9901   -1.0339   -0.1312 C   0  0  0  0  0  0  0  0  0  0  0  0
   -1.4727   -2.4489    0.1046 C   0  0  0  0  0  0  0  0  0  0  0  0
   -2.1962   -3.1113    1.2830 C   0  0  0  0  0  0  0  0  0  0  0  0
   -1.5890   -3.3003   -1.1656 C   0  0  0  0  0  0  0  0  0  0  0  0
   -1.1448    0.0972    0.0082 C   0  0  0  0  0  0  0  0  0  0  0  0
    0.2327   -0.0804    0.3800 N   0  0  0  0  0  0  0  0  0  0  0  0
    0.6022   -0.1079    1.7684 C   0  0  0  0  0  0  0  0  0  0  0  0
   -0.2571    0.1478    2.6555 O   0  0  0  0  0  0  0  0  0  0  0  0
    1.9847   -0.5119    2.1937 C   0  0  0  0  0  0  0  0  0  0  0  0
    3.0213   -0.3587    1.1066 C   0  0  0  0  0  0  0  0  0  0  0  0
    4.3801   -0.4079    1.4601 C   0  0  0  0  0  0  0  0  0  0  0  0
    5.3714   -0.3377    0.4791 C   0  0  0  0  0  0  0  0  0  0  0  0
    5.0175   -0.2311   -0.8661 C   0  0  0  0  0  0  0  0  0  0  0  0
    3.6712   -0.1936   -1.2349 C   0  0  0  0  0  0  0  0  0  0  0  0
    2.6634   -0.2589   -0.2555 C   0  0  0  0  0  0  0  0  0  0  0  0
    1.2393   -0.1972   -0.6365 C   0  0  0  0  0  0  0  0  0  0  0  0
    0.9060   -0.2266   -1.8536 O   0  0  0  0  0  0  0  0  0  0  0  0
   -2.2928    4.0049    0.7265 H   0  0  0  0  0  0  0  0  0  0  0  0
   -1.4135    3.0286    1.9681 H   0  0  0  0  0  0  0  0  0  0  0  0
   -0.5958    4.4177    1.1679 H   0  0  0  0  0  0  0  0  0  0  0  0
    0.2529    2.3554    0.2353 H   0  0  0  0  0  0  0  0  0  0  0  0
   -0.2381    2.6698   -2.1904 H   0  0  0  0  0  0  0  0  0  0  0  0
   -1.6024    3.7757   -1.7627 H   0  0  0  0  0  0  0  0  0  0  0  0
    0.0897    4.2096   -1.3184 H   0  0  0  0  0  0  0  0  0  0  0  0
   -3.4215    2.5318   -0.7737 H   0  0  0  0  0  0  0  0  0  0  0  0
   -4.8697    0.5735   -1.0036 H   0  0  0  0  0  0  0  0  0  0  0  0
   -4.0055   -1.6805   -0.6061 H   0  0  0  0  0  0  0  0  0  0  0  0
   -0.3951   -2.4342    0.3690 H   0  0  0  0  0  0  0  0  0  0  0  0
   -3.2743   -3.2594    1.0621 H   0  0  0  0  0  0  0  0  0  0  0  0
   -2.0983   -2.4791    2.1916 H   0  0  0  0  0  0  0  0  0  0  0  0
   -1.7422   -4.1019    1.4996 H   0  0  0  0  0  0  0  0  0  0  0  0
   -1.1142   -4.2916   -1.0032 H   0  0  0  0  0  0  0  0  0  0  0  0
   -1.0649   -2.7990   -2.0074 H   0  0  0  0  0  0  0  0  0  0  0  0
   -2.6506   -3.4622   -1.4477 H   0  0  0  0  0  0  0  0  0  0  0  0
    2.2802    0.1035    3.0714 H   0  0  0  0  0  0  0  0  0  0  0  0
    1.9569   -1.5760    2.5104 H   0  0  0  0  0  0  0  0  0  0  0  0
    4.6716   -0.5068    2.4986 H   0  0  0  0  0  0  0  0  0  0  0  0
    6.4156   -0.3726    0.7620 H   0  0  0  0  0  0  0  0  0  0  0  0
    5.7877   -0.1788   -1.6248 H   0  0  0  0  0  0  0  0  0  0  0  0
    3.4193   -0.1079   -2.2846 H   0  0  0  0  0  0  0  0  0  0  0  0
  1  2  1  0
  2  3  1  0
  2  4  1  0
  4  5  2  0
  5  6  1  0
  6  7  2  0
  7  8  1  0
  8  9  1  0
  9 10  1  0
  9 11  1  0
  8 12  2  0
 12 13  1  0
 13 14  1  0
 14 15  2  0
 14 16  1  0
 16 17  1  0
 17 18  2  0
 18 19  1  0
 19 20  2  0
 20 21  1  0
 21 22  2  0
 22 23  1  0
 23 24  2  0
 12  4  1  0
 23 13  1  0
 22 17  1  0
  1 25  1  0
  1 26  1  0
  1 27  1  0
  2 28  1  0
  3 29  1  0
  3 30  1  0
  3 31  1  0
  5 32  1  0
  6 33  1  0
  7 34  1  0
  9 35  1  0
 10 36  1  0
 10 37  1  0
 10 38  1  0
 11 39  1  0
 11 40  1  0
 11 41  1  0
 16 42  1  0
 16 43  1  0
 18 44  1  0
 19 45  1  0
 20 46  1  0
 21 47  1  0
M  END
$$$$
