
     RDKit          3D

 41 43  0  0  0  0  0  0  0  0999 V2000
    1.9640   -3.3961   -0.2107 N   0  0  0  0  0  0  0  0  0  0  0  0
    2.2293   -1.9668   -0.4004 C   0  0  1  0  0  0  0  0  0  0  0  0
    0.9075   -1.1641   -0.3758 C   0  0  0  0  0  0  0  0  0  0  0  0
    0.0788   -1.3427    0.9049 C   0  0  0  0  0  0  0  0  0  0  0  0
   -1.0832   -0.4618    0.8698 N   0  0  0  0  0  0  0  0  0  0  0  0
   -2.2739   -0.7238    0.3057 C   0  0  0  0  0  0  0  0  0  0  0  0
   -3.0283    0.4259    0.4504 C   0  0  0  0  0  0  0  0  0  0  0  0
   -4.4185    0.6613   -0.0034 C   0  0  0  0  0  0  0  0  0  0  0  0
   -5.0327    1.9058    0.2149 C   0  0  0  0  0  0  0  0  0  0  0  0
   -6.3427    2.1278   -0.2127 C   0  0  0  0  0  0  0  0  0  0  0  0
   -7.0344    1.1027   -0.8577 C   0  0  0  0  0  0  0  0  0  0  0  0
   -6.4329   -0.0979   -1.0643 N   0  0  0  0  0  0  0  0  0  0  0  0
   -5.1578   -0.3406   -0.6579 C   0  0  0  0  0  0  0  0  0  0  0  0
   -2.2685    1.3453    1.0844 N   0  0  0  0  0  0  0  0  0  0  0  0
   -1.0927    0.7817    1.3205 N   0  0  0  0  0  0  0  0  0  0  0  0
    3.2885   -1.4608    0.6103 C   0  0  0  0  0  0  0  0  0  0  0  0
    3.7259   -0.0444    0.3190 C   0  0  0  0  0  0  0  0  0  0  0  0
    4.5886    0.2087   -0.7616 C   0  0  0  0  0  0  0  0  0  0  0  0
    4.9839    1.5159   -1.0610 C   0  0  0  0  0  0  0  0  0  0  0  0
    5.8164    1.7474   -2.1061 F   0  0  0  0  0  0  0  0  0  0  0  0
    4.5197    2.5823   -0.2857 C   0  0  0  0  0  0  0  0  0  0  0  0
    4.9011    3.8508   -0.5756 F   0  0  0  0  0  0  0  0  0  0  0  0
    3.6605    2.3416    0.7897 C   0  0  0  0  0  0  0  0  0  0  0  0
    3.2620    1.0360    1.0948 C   0  0  0  0  0  0  0  0  0  0  0  0
    2.4265    0.8313    2.1439 F   0  0  0  0  0  0  0  0  0  0  0  0
    1.8035   -3.5919    0.8043 H   0  0  0  0  0  0  0  0  0  0  0  0
    2.8180   -3.9320   -0.4898 H   0  0  0  0  0  0  0  0  0  0  0  0
    2.6544   -1.8394   -1.4220 H   0  0  0  0  0  0  0  0  0  0  0  0
    0.2864   -1.4875   -1.2398 H   0  0  0  0  0  0  0  0  0  0  0  0
    1.1246   -0.0848   -0.5265 H   0  0  0  0  0  0  0  0  0  0  0  0
   -0.2637   -2.3961    0.9946 H   0  0  0  0  0  0  0  0  0  0  0  0
    0.6832   -1.1022    1.8024 H   0  0  0  0  0  0  0  0  0  0  0  0
   -2.5470   -1.6560   -0.1703 H   0  0  0  0  0  0  0  0  0  0  0  0
   -4.5017    2.7062    0.7149 H   0  0  0  0  0  0  0  0  0  0  0  0
   -6.8174    3.0860   -0.0456 H   0  0  0  0  0  0  0  0  0  0  0  0
   -8.0502    1.2609   -1.1943 H   0  0  0  0  0  0  0  0  0  0  0  0
   -4.7305   -1.3147   -0.8484 H   0  0  0  0  0  0  0  0  0  0  0  0
    2.9163   -1.5561    1.6514 H   0  0  0  0  0  0  0  0  0  0  0  0
    4.1830   -2.1188    0.5488 H   0  0  0  0  0  0  0  0  0  0  0  0
    4.9525   -0.6083   -1.3725 H   0  0  0  0  0  0  0  0  0  0  0  0
    3.3015    3.1690    1.3883 H   0  0  0  0  0  0  0  0  0  0  0  0
  1  2  1  0
  2  3  1  0
  3  4  1  0
  4  5  1  0
  5  6  1  0
  6  7  2  0
  7  8  1  0
  8  9  2  0
  9 10  1  0
 10 11  2  0
 11 12  1  0
 12 13  2  0
  7 14  1  0
 14 15  2  0
  2 16  1  0
 16 17  1  0
 17 18  2  0
 18 19  1  0
 19 20  1  0
 19 21  2  0
 21 22  1  0
 21 23  1  0
 23 24  2  0
 24 25  1  0
 15  5  1  0
 24 17  1  0
 13  8  1  0
  1 26  1  0
  1 27  1  0
  2 28  1  6
  3 29  1  0
  3 30  1  0
  4 31  1  0
  4 32  1  0
  6 33  1  0
  9 34  1  0
 10 35  1  0
 11 36  1  0
 13 37  1  0
 16 38  1  0
 16 39  1  0
 18 40  1  0
 23 41  1  0
M  END
$$$$
