
     RDKit          3D

 45 48  0  0  0  0  0  0  0  0999 V2000
    0.1984   -4.2323    1.6994 C   0  0  0  0  0  0  0  0  0  0  0  0
   -0.6551   -3.5617    0.7102 N   0  0  0  0  0  0  0  0  0  0  0  0
   -1.7813   -4.1731    0.2073 C   0  0  0  0  0  0  0  0  0  0  0  0
   -2.1161   -5.3217    0.6083 O   0  0  0  0  0  0  0  0  0  0  0  0
   -2.5529   -3.5427   -0.7363 N   0  0  0  0  0  0  0  0  0  0  0  0
   -2.2248   -2.3090   -1.2199 C   0  0  0  0  0  0  0  0  0  0  0  0
   -2.9491   -1.7594   -2.0905 O   0  0  0  0  0  0  0  0  0  0  0  0
   -1.0690   -1.7007   -0.7294 C   0  0  0  0  0  0  0  0  0  0  0  0
   -0.3194   -2.3391    0.2091 C   0  0  0  0  0  0  0  0  0  0  0  0
    0.7366   -1.5885    0.5718 N   0  0  0  0  0  0  0  0  0  0  0  0
    0.5913   -0.4790   -0.1965 C   0  0  0  0  0  0  0  0  0  0  0  0
    1.4926    0.6340   -0.1035 N   0  0  0  0  0  0  0  0  0  0  0  0
    1.8073    1.1977    1.2117 C   0  0  0  0  0  0  0  0  0  0  0  0
    3.2794    0.9215    1.5818 C   0  0  0  0  0  0  0  0  0  0  0  0
    4.1342    0.6607    0.4069 N   0  0  0  0  0  0  0  0  0  0  0  0
    3.7245    1.4555   -0.7561 C   0  0  0  0  0  0  0  0  0  0  0  0
    2.3529    0.9747   -1.2440 C   0  0  0  0  0  0  0  0  0  0  0  0
   -0.5010   -0.5080   -1.0102 N   0  0  0  0  0  0  0  0  0  0  0  0
   -1.0366    0.6041   -1.8037 C   0  0  0  0  0  0  0  0  0  0  0  0
   -1.7005    1.6112   -0.9025 C   0  0  0  0  0  0  0  0  0  0  0  0
   -1.0422    2.8042   -0.5583 C   0  0  0  0  0  0  0  0  0  0  0  0
   -1.6444    3.7152    0.3146 C   0  0  0  0  0  0  0  0  0  0  0  0
   -2.9048    3.4420    0.8522 C   0  0  0  0  0  0  0  0  0  0  0  0
   -3.5643    2.2560    0.5189 C   0  0  0  0  0  0  0  0  0  0  0  0
   -2.9647    1.3415   -0.3524 C   0  0  0  0  0  0  0  0  0  0  0  0
    0.7839   -3.4968    2.2913 H   0  0  0  0  0  0  0  0  0  0  0  0
    0.8993   -4.9193    1.1803 H   0  0  0  0  0  0  0  0  0  0  0  0
   -0.4169   -4.8128    2.4196 H   0  0  0  0  0  0  0  0  0  0  0  0
   -3.4092   -4.0213   -1.0988 H   0  0  0  0  0  0  0  0  0  0  0  0
    1.6426    2.2965    1.1709 H   0  0  0  0  0  0  0  0  0  0  0  0
    1.1295    0.7945    1.9965 H   0  0  0  0  0  0  0  0  0  0  0  0
    3.3203    0.0291    2.2423 H   0  0  0  0  0  0  0  0  0  0  0  0
    3.6769    1.7845    2.1621 H   0  0  0  0  0  0  0  0  0  0  0  0
    5.1174    0.9234    0.6524 H   0  0  0  0  0  0  0  0  0  0  0  0
    3.6823    2.5364   -0.4904 H   0  0  0  0  0  0  0  0  0  0  0  0
    4.4681    1.3337   -1.5736 H   0  0  0  0  0  0  0  0  0  0  0  0
    2.5002    0.0770   -1.8847 H   0  0  0  0  0  0  0  0  0  0  0  0
    1.8825    1.7720   -1.8545 H   0  0  0  0  0  0  0  0  0  0  0  0
   -1.7578    0.2466   -2.5631 H   0  0  0  0  0  0  0  0  0  0  0  0
   -0.2214    1.0764   -2.3863 H   0  0  0  0  0  0  0  0  0  0  0  0
   -0.0636    3.0297   -0.9613 H   0  0  0  0  0  0  0  0  0  0  0  0
   -1.1325    4.6323    0.5762 H   0  0  0  0  0  0  0  0  0  0  0  0
   -3.3694    4.1479    1.5284 H   0  0  0  0  0  0  0  0  0  0  0  0
   -4.5389    2.0433    0.9388 H   0  0  0  0  0  0  0  0  0  0  0  0
   -3.4844    0.4239   -0.5940 H   0  0  0  0  0  0  0  0  0  0  0  0
  1  2  1  0
  2  3  1  0
  3  4  2  0
  3  5  1  0
  5  6  1  0
  6  7  2  0
  6  8  1  0
  8  9  2  0
  9 10  1  0
 10 11  2  0
 11 12  1  0
 12 13  1  0
 13 14  1  0
 14 15  1  0
 15 16  1  0
 16 17  1  0
 11 18  1  0
 18 19  1  0
 19 20  1  0
 20 21  2  0
 21 22  1  0
 22 23  2  0
 23 24  1  0
 24 25  2  0
  9  2  1  0
 17 12  1  0
 25 20  1  0
 18  8  1  0
  1 26  1  0
  1 27  1  0
  1 28  1  0
  5 29  1  0
 13 30  1  0
 13 31  1  0
 14 32  1  0
 14 33  1  0
 15 34  1  0
 16 35  1  0
 16 36  1  0
 17 37  1  0
 17 38  1  0
 19 39  1  0
 19 40  1  0
 21 41  1  0
 22 42  1  0
 23 43  1  0
 24 44  1  0
 25 45  1  0
M  END
$$$$
