
     RDKit          3D

 37 38  0  0  0  0  0  0  0  0999 V2000
   -4.6352    3.0131    0.5942 C   0  0  0  0  0  0  0  0  0  0  0  0
   -3.5749    2.0653    0.5230 O   0  0  0  0  0  0  0  0  0  0  0  0
   -3.7029    0.7574    0.0240 C   0  0  0  0  0  0  0  0  0  0  0  0
   -4.9309    0.2726   -0.4669 C   0  0  0  0  0  0  0  0  0  0  0  0
   -5.0419   -1.0290   -0.9627 C   0  0  0  0  0  0  0  0  0  0  0  0
   -6.2806   -1.4591   -1.4405 O   0  0  0  0  0  0  0  0  0  0  0  0
   -3.9162   -1.8696   -0.9661 C   0  0  0  0  0  0  0  0  0  0  0  0
   -4.0042   -3.5229   -1.5600 Cl  0  0  0  0  0  0  0  0  0  0  0  0
   -2.6938   -1.3977   -0.4794 C   0  0  0  0  0  0  0  0  0  0  0  0
   -2.5694   -0.0819    0.0073 C   0  0  0  0  0  0  0  0  0  0  0  0
   -1.2782    0.4214    0.5425 C   0  0  0  0  0  0  0  0  0  0  0  0
   -0.0850   -0.0181    0.1167 C   0  0  0  0  0  0  0  0  0  0  0  0
    1.1883    0.5155    0.6527 C   0  0  0  0  0  0  0  0  0  0  0  0
    1.1696    1.5220    1.4141 O   0  0  0  0  0  0  0  0  0  0  0  0
    2.4942   -0.0927    0.2928 C   0  0  0  0  0  0  0  0  0  0  0  0
    2.5933   -1.4480   -0.0664 C   0  0  0  0  0  0  0  0  0  0  0  0
    3.8304   -2.0048   -0.3946 C   0  0  0  0  0  0  0  0  0  0  0  0
    4.9920   -1.2282   -0.3656 C   0  0  0  0  0  0  0  0  0  0  0  0
    6.2030   -1.8354   -0.7050 O   0  0  0  0  0  0  0  0  0  0  0  0
    4.9143    0.1325    0.0041 C   0  0  0  0  0  0  0  0  0  0  0  0
    6.1448    0.9965    0.0497 C   0  0  0  0  0  0  0  0  0  0  0  0
    3.6646    0.6859    0.3342 C   0  0  0  0  0  0  0  0  0  0  0  0
   -5.0254    3.2270   -0.4232 H   0  0  0  0  0  0  0  0  0  0  0  0
   -5.4489    2.6279    1.2443 H   0  0  0  0  0  0  0  0  0  0  0  0
   -4.2486    3.9565    1.0312 H   0  0  0  0  0  0  0  0  0  0  0  0
   -5.8117    0.9002   -0.4701 H   0  0  0  0  0  0  0  0  0  0  0  0
   -6.4316   -2.3877   -1.8136 H   0  0  0  0  0  0  0  0  0  0  0  0
   -1.8505   -2.0754   -0.4604 H   0  0  0  0  0  0  0  0  0  0  0  0
   -1.3132    1.2080    1.2868 H   0  0  0  0  0  0  0  0  0  0  0  0
   -0.0380   -0.7527   -0.6749 H   0  0  0  0  0  0  0  0  0  0  0  0
    1.7222   -2.0895   -0.0727 H   0  0  0  0  0  0  0  0  0  0  0  0
    3.8882   -3.0509   -0.6679 H   0  0  0  0  0  0  0  0  0  0  0  0
    7.0862   -1.3416   -0.7078 H   0  0  0  0  0  0  0  0  0  0  0  0
    6.8704    0.5784    0.7787 H   0  0  0  0  0  0  0  0  0  0  0  0
    5.9063    2.0359    0.3606 H   0  0  0  0  0  0  0  0  0  0  0  0
    6.6119    1.0380   -0.9567 H   0  0  0  0  0  0  0  0  0  0  0  0
    3.6017    1.7311    0.6132 H   0  0  0  0  0  0  0  0  0  0  0  0
  1  2  1  0
  2  3  1  0
  3  4  2  0
  4  5  1  0
  5  6  1  0
  5  7  2  0
  7  8  1  0
  7  9  1  0
  9 10  2  0
 10 11  1  0
 11 12  2  0
 12 13  1  0
 13 14  2  0
 13 15  1  0
 15 16  2  0
 16 17  1  0
 17 18  2  0
 18 19  1  0
 18 20  1  0
 20 21  1  0
 20 22  2  0
 10  3  1  0
 22 15  1  0
  1 23  1  0
  1 24  1  0
  1 25  1  0
  4 26  1  0
  6 27  1  0
  9 28  1  0
 11 29  1  0
 12 30  1  0
 16 31  1  0
 17 32  1  0
 19 33  1  0
 21 34  1  0
 21 35  1  0
 21 36  1  0
 22 37  1  0
M  END
$$$$
