
     RDKit          3D

 31 32  0  0  0  0  0  0  0  0999 V2000
    0.7296   -3.4372    0.0909 N   0  0  0  0  0  0  0  0  0  0  0  0
    0.7166   -1.9757    0.1962 C   0  0  1  0  0  0  0  0  0  0  0  0
    2.1168   -1.3941   -0.0918 C   0  0  0  0  0  0  0  0  0  0  0  0
    2.1716    0.0781    0.1901 C   0  0  0  0  0  0  0  0  0  0  0  0
    1.8852    1.0850   -0.7051 C   0  0  0  0  0  0  0  0  0  0  0  0
    1.9675    2.2523   -0.0504 N   0  0  0  0  0  0  0  0  0  0  0  0
    2.2922    1.9335    1.2170 C   0  0  0  0  0  0  0  0  0  0  0  0
    2.4190    0.6029    1.4070 N   0  0  0  0  0  0  0  0  0  0  0  0
   -0.3082   -1.4072   -0.7617 C   0  0  0  0  0  0  0  0  0  0  0  0
   -0.3264   -1.8247   -1.9523 O   0  0  0  0  0  0  0  0  0  0  0  0
   -1.2068   -0.3506   -0.3735 N   0  0  0  0  0  0  0  0  0  0  0  0
   -1.9963    0.3954   -1.3376 C   0  0  0  0  0  0  0  0  0  0  0  0
   -2.6377    1.5311   -0.5528 C   0  0  0  0  0  0  0  0  0  0  0  0
   -2.5398    1.1293    0.9159 C   0  0  0  0  0  0  0  0  0  0  0  0
   -1.4202    0.1000    0.9922 C   0  0  0  0  0  0  0  0  0  0  0  0
    1.1591   -3.7205   -0.8206 H   0  0  0  0  0  0  0  0  0  0  0  0
    1.3380   -3.8219    0.8501 H   0  0  0  0  0  0  0  0  0  0  0  0
    0.4424   -1.7213    1.2418 H   0  0  0  0  0  0  0  0  0  0  0  0
    2.4025   -1.5816   -1.1502 H   0  0  0  0  0  0  0  0  0  0  0  0
    2.8674   -1.9020    0.5518 H   0  0  0  0  0  0  0  0  0  0  0  0
    1.6174    0.9764   -1.7480 H   0  0  0  0  0  0  0  0  0  0  0  0
    1.8013    3.2068   -0.4388 H   0  0  0  0  0  0  0  0  0  0  0  0
    2.4257    2.6644    2.0033 H   0  0  0  0  0  0  0  0  0  0  0  0
   -2.7748   -0.2671   -1.7743 H   0  0  0  0  0  0  0  0  0  0  0  0
   -1.3452    0.7988   -2.1437 H   0  0  0  0  0  0  0  0  0  0  0  0
   -2.0627    2.4690   -0.7182 H   0  0  0  0  0  0  0  0  0  0  0  0
   -3.6940    1.6906   -0.8599 H   0  0  0  0  0  0  0  0  0  0  0  0
   -2.3268    2.0085    1.5621 H   0  0  0  0  0  0  0  0  0  0  0  0
   -3.4977    0.6637    1.2367 H   0  0  0  0  0  0  0  0  0  0  0  0
   -0.4934    0.5698    1.3839 H   0  0  0  0  0  0  0  0  0  0  0  0
   -1.7221   -0.7515    1.6398 H   0  0  0  0  0  0  0  0  0  0  0  0
  1  2  1  0
  2  3  1  0
  3  4  1  0
  4  5  2  0
  5  6  1  0
  6  7  1  0
  7  8  2  0
  2  9  1  0
  9 10  2  0
  9 11  1  0
 11 12  1  0
 12 13  1  0
 13 14  1  0
 14 15  1  0
  8  4  1  0
 15 11  1  0
  1 16  1  0
  1 17  1  0
  2 18  1  1
  3 19  1  0
  3 20  1  0
  5 21  1  0
  6 22  1  0
  7 23  1  0
 12 24  1  0
 12 25  1  0
 13 26  1  0
 13 27  1  0
 14 28  1  0
 14 29  1  0
 15 30  1  0
 15 31  1  0
M  END
$$$$
