
     RDKit          3D

 50 52  0  0  0  0  0  0  0  0999 V2000
    7.1689    1.3255    0.0879 C   0  0  0  0  0  0  0  0  0  0  0  0
    5.7099    0.9976    0.0827 C   0  0  0  0  0  0  0  0  0  0  0  0
    4.7614    1.9949   -0.1676 C   0  0  0  0  0  0  0  0  0  0  0  0
    3.4061    1.6668   -0.1607 C   0  0  0  0  0  0  0  0  0  0  0  0
    3.0010    0.3517    0.0952 C   0  0  0  0  0  0  0  0  0  0  0  0
    1.6010    0.0313    0.0847 N   0  0  0  0  0  0  0  0  0  0  0  0
    1.0537   -0.8797   -0.9248 C   0  0  0  0  0  0  0  0  0  0  0  0
   -0.2525   -0.3094   -1.4863 C   0  0  0  0  0  0  0  0  0  0  0  0
   -1.2615    0.0402   -0.3638 C   0  0  0  0  0  0  0  0  0  0  0  0
   -1.8547   -1.2256    0.3537 C   0  0  2  0  0  0  0  0  0  0  0  0
   -2.3600   -2.2162   -0.6044 N   0  0  0  0  0  0  0  0  0  0  0  0
   -2.9749   -0.9048    1.3748 C   0  0  0  0  0  0  0  0  0  0  0  0
   -4.1989   -0.2635    0.7573 C   0  0  0  0  0  0  0  0  0  0  0  0
   -4.3240    1.1370    0.7272 C   0  0  0  0  0  0  0  0  0  0  0  0
   -5.4446    1.7358    0.1439 C   0  0  0  0  0  0  0  0  0  0  0  0
   -5.5529    3.0870    0.1159 F   0  0  0  0  0  0  0  0  0  0  0  0
   -6.4533    0.9437   -0.4089 C   0  0  0  0  0  0  0  0  0  0  0  0
   -6.3457   -0.4483   -0.3753 C   0  0  0  0  0  0  0  0  0  0  0  0
   -5.2271   -1.0541    0.2062 C   0  0  0  0  0  0  0  0  0  0  0  0
   -5.1533   -2.4089    0.2381 F   0  0  0  0  0  0  0  0  0  0  0  0
   -0.5823    1.0376    0.6101 C   0  0  0  0  0  0  0  0  0  0  0  0
    0.7381    0.4976    1.1738 C   0  0  0  0  0  0  0  0  0  0  0  0
    3.9839   -0.6227    0.3704 C   0  0  0  0  0  0  0  0  0  0  0  0
    3.6208   -2.0439    0.6780 C   0  0  0  0  0  0  0  0  0  0  0  0
    5.2995   -0.2722    0.3479 N   0  0  0  0  0  0  0  0  0  0  0  0
    7.3961    2.0019    0.9384 H   0  0  0  0  0  0  0  0  0  0  0  0
    7.4471    1.8266   -0.8633 H   0  0  0  0  0  0  0  0  0  0  0  0
    7.7759    0.4012    0.1927 H   0  0  0  0  0  0  0  0  0  0  0  0
    5.0695    3.0134   -0.3698 H   0  0  0  0  0  0  0  0  0  0  0  0
    2.6684    2.4332   -0.3638 H   0  0  0  0  0  0  0  0  0  0  0  0
    1.7754   -1.0107   -1.7610 H   0  0  0  0  0  0  0  0  0  0  0  0
    0.8724   -1.8762   -0.4704 H   0  0  0  0  0  0  0  0  0  0  0  0
   -0.6876   -1.0139   -2.2243 H   0  0  0  0  0  0  0  0  0  0  0  0
   -0.0126    0.6182   -2.0522 H   0  0  0  0  0  0  0  0  0  0  0  0
   -2.1017    0.5763   -0.8555 H   0  0  0  0  0  0  0  0  0  0  0  0
   -1.0437   -1.7120    0.9369 H   0  0  0  0  0  0  0  0  0  0  0  0
   -1.5595   -2.7573   -1.0039 H   0  0  0  0  0  0  0  0  0  0  0  0
   -2.8573   -1.7357   -1.3895 H   0  0  0  0  0  0  0  0  0  0  0  0
   -2.5847   -0.2707    2.1970 H   0  0  0  0  0  0  0  0  0  0  0  0
   -3.2764   -1.8522    1.8731 H   0  0  0  0  0  0  0  0  0  0  0  0
   -3.5559    1.7667    1.1552 H   0  0  0  0  0  0  0  0  0  0  0  0
   -7.3211    1.4075   -0.8601 H   0  0  0  0  0  0  0  0  0  0  0  0
   -7.1325   -1.0591   -0.7991 H   0  0  0  0  0  0  0  0  0  0  0  0
   -1.2500    1.3208    1.4456 H   0  0  0  0  0  0  0  0  0  0  0  0
   -0.3647    1.9785    0.0578 H   0  0  0  0  0  0  0  0  0  0  0  0
    0.5471   -0.3385    1.8783 H   0  0  0  0  0  0  0  0  0  0  0  0
    1.2383    1.3077    1.7489 H   0  0  0  0  0  0  0  0  0  0  0  0
    4.4776   -2.5665    1.1537 H   0  0  0  0  0  0  0  0  0  0  0  0
    2.7611   -2.0816    1.3799 H   0  0  0  0  0  0  0  0  0  0  0  0
    3.3602   -2.5750   -0.2608 H   0  0  0  0  0  0  0  0  0  0  0  0
  1  2  1  0
  2  3  2  0
  3  4  1  0
  4  5  2  0
  5  6  1  0
  6  7  1  0
  7  8  1  0
  8  9  1  0
  9 10  1  0
 10 11  1  0
 10 12  1  0
 12 13  1  0
 13 14  2  0
 14 15  1  0
 15 16  1  0
 15 17  2  0
 17 18  1  0
 18 19  2  0
 19 20  1  0
  9 21  1  0
 21 22  1  0
  5 23  1  0
 23 24  1  0
 23 25  2  0
 25  2  1  0
 22  6  1  0
 19 13  1  0
  1 26  1  0
  1 27  1  0
  1 28  1  0
  3 29  1  0
  4 30  1  0
  7 31  1  0
  7 32  1  0
  8 33  1  0
  8 34  1  0
  9 35  1  0
 10 36  1  1
 11 37  1  0
 11 38  1  0
 12 39  1  0
 12 40  1  0
 14 41  1  0
 17 42  1  0
 18 43  1  0
 21 44  1  0
 21 45  1  0
 22 46  1  0
 22 47  1  0
 24 48  1  0
 24 49  1  0
 24 50  1  0
M  END
$$$$
