
     RDKit          3D

 48 51  0  0  0  0  0  0  0  0999 V2000
   -1.4642   -0.8982    2.2350 N   0  0  0  0  0  0  0  0  0  0  0  0
   -1.2142    0.3710    1.5477 C   0  0  1  0  0  0  0  0  0  0  0  0
    0.2121    0.4488    0.9990 C   0  0  0  0  0  0  0  0  0  0  0  0
    0.1476    1.0374   -0.3526 N   0  0  0  0  0  0  0  0  0  0  0  0
    1.0818    2.1642   -0.5350 C   0  0  0  0  0  0  0  0  0  0  0  0
    2.4986    1.6597   -0.6145 C   0  0  0  0  0  0  0  0  0  0  0  0
    3.4032    1.8990    0.4294 C   0  0  0  0  0  0  0  0  0  0  0  0
    4.7100    1.4076    0.3600 C   0  0  0  0  0  0  0  0  0  0  0  0
    5.1370    0.6601   -0.7553 C   0  0  0  0  0  0  0  0  0  0  0  0
    6.5222    0.1273   -0.8522 C   0  0  0  0  0  0  0  0  0  0  0  0
    7.4430    0.1237    0.2041 C   0  0  0  0  0  0  0  0  0  0  0  0
    8.8106   -0.5827   -0.4347 S   0  0  0  0  0  0  0  0  0  0  0  0
    8.2484   -0.8627   -1.9664 N   0  0  0  0  0  0  0  0  0  0  0  0
    6.9963   -0.4192   -2.0170 N   0  0  0  0  0  0  0  0  0  0  0  0
    4.2220    0.4245   -1.7986 C   0  0  0  0  0  0  0  0  0  0  0  0
    2.9159    0.9162   -1.7266 C   0  0  0  0  0  0  0  0  0  0  0  0
   -1.2455    1.4497   -0.5730 C   0  0  0  0  0  0  0  0  0  0  0  0
   -2.1109    0.5778    0.3276 C   0  0  1  0  0  0  0  0  0  0  0  0
   -2.4812   -0.7255   -0.3632 C   0  0  0  0  0  0  0  0  0  0  0  0
   -1.5864   -1.3747   -0.9727 O   0  0  0  0  0  0  0  0  0  0  0  0
   -3.8172   -1.2598   -0.3019 N   0  0  0  0  0  0  0  0  0  0  0  0
   -4.1949   -2.4981   -0.9609 C   0  0  0  0  0  0  0  0  0  0  0  0
   -5.7013   -2.6206   -0.7766 C   0  0  0  0  0  0  0  0  0  0  0  0
   -6.0634   -1.6572    0.3499 C   0  0  0  0  0  0  0  0  0  0  0  0
   -4.9216   -0.6523    0.4222 C   0  0  0  0  0  0  0  0  0  0  0  0
   -0.8170   -0.9549    3.0548 H   0  0  0  0  0  0  0  0  0  0  0  0
   -2.4317   -0.8658    2.6306 H   0  0  0  0  0  0  0  0  0  0  0  0
   -1.3734    1.2168    2.2573 H   0  0  0  0  0  0  0  0  0  0  0  0
    0.8475    1.0362    1.7000 H   0  0  0  0  0  0  0  0  0  0  0  0
    0.6534   -0.5678    0.9127 H   0  0  0  0  0  0  0  0  0  0  0  0
    0.9652    2.9139    0.2811 H   0  0  0  0  0  0  0  0  0  0  0  0
    0.8546    2.6896   -1.4898 H   0  0  0  0  0  0  0  0  0  0  0  0
    3.0982    2.4671    1.2996 H   0  0  0  0  0  0  0  0  0  0  0  0
    5.3796    1.6267    1.1792 H   0  0  0  0  0  0  0  0  0  0  0  0
    7.3143    0.4766    1.2172 H   0  0  0  0  0  0  0  0  0  0  0  0
    4.5113   -0.1483   -2.6707 H   0  0  0  0  0  0  0  0  0  0  0  0
    2.2269    0.7146   -2.5377 H   0  0  0  0  0  0  0  0  0  0  0  0
   -1.4012    2.5169   -0.2872 H   0  0  0  0  0  0  0  0  0  0  0  0
   -1.5149    1.3353   -1.6459 H   0  0  0  0  0  0  0  0  0  0  0  0
   -3.0218    1.1441    0.6142 H   0  0  0  0  0  0  0  0  0  0  0  0
   -3.6719   -3.3516   -0.4775 H   0  0  0  0  0  0  0  0  0  0  0  0
   -3.9362   -2.4580   -2.0414 H   0  0  0  0  0  0  0  0  0  0  0  0
   -6.2180   -2.3084   -1.7109 H   0  0  0  0  0  0  0  0  0  0  0  0
   -5.9957   -3.6633   -0.5277 H   0  0  0  0  0  0  0  0  0  0  0  0
   -7.0351   -1.1536    0.1550 H   0  0  0  0  0  0  0  0  0  0  0  0
   -6.1287   -2.2174    1.3088 H   0  0  0  0  0  0  0  0  0  0  0  0
   -4.6407   -0.4649    1.4809 H   0  0  0  0  0  0  0  0  0  0  0  0
   -5.2129    0.3000   -0.0717 H   0  0  0  0  0  0  0  0  0  0  0  0
  1  2  1  0
  2  3  1  0
  3  4  1  0
  4  5  1  0
  5  6  1  0
  6  7  2  0
  7  8  1  0
  8  9  2  0
  9 10  1  0
 10 11  2  0
 11 12  1  0
 12 13  1  0
 13 14  2  0
  9 15  1  0
 15 16  2  0
  4 17  1  0
 17 18  1  0
 18 19  1  0
 19 20  2  0
 19 21  1  0
 21 22  1  0
 22 23  1  0
 23 24  1  0
 24 25  1  0
 18  2  1  0
 25 21  1  0
 16  6  1  0
 14 10  1  0
  1 26  1  0
  1 27  1  0
  2 28  1  1
  3 29  1  0
  3 30  1  0
  5 31  1  0
  5 32  1  0
  7 33  1  0
  8 34  1  0
 11 35  1  0
 15 36  1  0
 16 37  1  0
 17 38  1  0
 17 39  1  0
 18 40  1  1
 22 41  1  0
 22 42  1  0
 23 43  1  0
 23 44  1  0
 24 45  1  0
 24 46  1  0
 25 47  1  0
 25 48  1  0
M  END
$$$$
