
     RDKit          3D

 40 40  0  0  0  0  0  0  0  0999 V2000
    5.3477    1.5578    0.7172 N   0  0  0  0  0  0  0  0  0  0  0  0
    5.2563    0.1565    0.4268 C   0  0  0  0  0  0  0  0  0  0  0  0
    6.3369   -0.4855   -0.2496 N   0  0  0  0  0  0  0  0  0  0  0  0
    4.2189   -0.5531    0.7707 N   0  0  0  0  0  0  0  0  0  0  0  0
    3.0153   -0.0714    1.4495 C   0  0  0  0  0  0  0  0  0  0  0  0
    2.0883    0.6786    0.4788 C   0  0  0  0  0  0  0  0  0  0  0  0
    1.4895   -0.2385   -0.6152 C   0  0  0  0  0  0  0  0  0  0  0  0
    0.0230   -0.6846   -0.3669 C   0  0  0  0  0  0  0  0  0  0  0  0
   -0.1193   -1.4154    0.8949 N   0  0  0  0  0  0  0  0  0  0  0  0
   -0.9811    0.4531   -0.4292 C   0  0  0  0  0  0  0  0  0  0  0  0
   -0.5875    1.6214   -0.7008 O   0  0  0  0  0  0  0  0  0  0  0  0
   -2.3876    0.2184   -0.2025 N   0  0  0  0  0  0  0  0  0  0  0  0
   -3.2592    1.3391    0.1805 C   0  0  0  0  0  0  0  0  0  0  0  0
   -4.3202    0.8625    1.1780 C   0  0  0  0  0  0  0  0  0  0  0  0
   -5.1136   -0.3641    0.6782 C   0  0  0  0  0  0  0  0  0  0  0  0
   -4.5069   -1.0283   -0.5670 C   0  0  0  0  0  0  0  0  0  0  0  0
   -2.9781   -1.1022   -0.4810 C   0  0  0  0  0  0  0  0  0  0  0  0
    6.1894    2.0956    0.4136 H   0  0  0  0  0  0  0  0  0  0  0  0
    4.6102    2.0762    1.2408 H   0  0  0  0  0  0  0  0  0  0  0  0
    6.2942   -1.5055   -0.4699 H   0  0  0  0  0  0  0  0  0  0  0  0
    7.1827    0.0566   -0.5336 H   0  0  0  0  0  0  0  0  0  0  0  0
    2.4801   -0.9449    1.8733 H   0  0  0  0  0  0  0  0  0  0  0  0
    3.2884    0.5776    2.3086 H   0  0  0  0  0  0  0  0  0  0  0  0
    2.6617    1.4922   -0.0138 H   0  0  0  0  0  0  0  0  0  0  0  0
    1.2871    1.1757    1.0652 H   0  0  0  0  0  0  0  0  0  0  0  0
    2.1209   -1.1434   -0.7527 H   0  0  0  0  0  0  0  0  0  0  0  0
    1.5271    0.2990   -1.5885 H   0  0  0  0  0  0  0  0  0  0  0  0
   -0.2315   -1.3833   -1.1928 H   0  0  0  0  0  0  0  0  0  0  0  0
    0.0690   -0.7780    1.7016 H   0  0  0  0  0  0  0  0  0  0  0  0
    0.5772   -2.1952    0.9214 H   0  0  0  0  0  0  0  0  0  0  0  0
   -3.7484    1.7556   -0.7265 H   0  0  0  0  0  0  0  0  0  0  0  0
   -2.6701    2.1509    0.6609 H   0  0  0  0  0  0  0  0  0  0  0  0
   -5.0194    1.6985    1.3969 H   0  0  0  0  0  0  0  0  0  0  0  0
   -3.8093    0.5996    2.1305 H   0  0  0  0  0  0  0  0  0  0  0  0
   -5.1698   -1.1154    1.4963 H   0  0  0  0  0  0  0  0  0  0  0  0
   -6.1567   -0.0599    0.4425 H   0  0  0  0  0  0  0  0  0  0  0  0
   -4.9243   -2.0517   -0.6845 H   0  0  0  0  0  0  0  0  0  0  0  0
   -4.7905   -0.4434   -1.4696 H   0  0  0  0  0  0  0  0  0  0  0  0
   -2.5991   -1.4868   -1.4523 H   0  0  0  0  0  0  0  0  0  0  0  0
   -2.6912   -1.8148    0.3211 H   0  0  0  0  0  0  0  0  0  0  0  0
  1  2  1  0
  2  3  1  0
  2  4  2  3
  4  5  1  0
  5  6  1  0
  6  7  1  0
  7  8  1  0
  8  9  1  0
  8 10  1  0
 10 11  2  0
 10 12  1  0
 12 13  1  0
 13 14  1  0
 14 15  1  0
 15 16  1  0
 16 17  1  0
 17 12  1  0
  1 18  1  0
  1 19  1  0
  3 20  1  0
  3 21  1  0
  5 22  1  0
  5 23  1  0
  6 24  1  0
  6 25  1  0
  7 26  1  0
  7 27  1  0
  8 28  1  0
  9 29  1  0
  9 30  1  0
 13 31  1  0
 13 32  1  0
 14 33  1  0
 14 34  1  0
 15 35  1  0
 15 36  1  0
 16 37  1  0
 16 38  1  0
 17 39  1  0
 17 40  1  0
M  END
$$$$
