
     RDKit          3D

 63 66  0  0  0  0  0  0  0  0999 V2000
   -4.6448    2.3106    0.5787 N   0  0  0  0  0  0  0  0  0  0  0  0
   -3.4244    1.5018    0.4596 C   0  0  1  0  0  0  0  0  0  0  0  0
   -2.2665    2.2833    1.1151 C   0  0  0  0  0  0  0  0  0  0  0  0
   -1.9364    3.5292    0.3352 C   0  0  0  0  0  0  0  0  0  0  0  0
   -2.4715    4.6178    0.6795 O   0  0  0  0  0  0  0  0  0  0  0  0
   -1.0730    3.4947   -0.8210 N   0  0  0  0  0  0  0  0  0  0  0  0
   -1.0040    4.5998   -1.7639 C   0  0  0  0  0  0  0  0  0  0  0  0
   -0.0946    4.1287   -2.8918 C   0  0  0  0  0  0  0  0  0  0  0  0
   -0.0271    2.6109   -2.7572 C   0  0  0  0  0  0  0  0  0  0  0  0
   -0.3454    2.3185   -1.2891 C   0  0  1  0  0  0  0  0  0  0  0  0
    0.9410    2.1112   -0.4617 C   0  0  0  0  0  0  0  0  0  0  0  0
    1.4705    0.7596   -0.6506 N   0  0  0  0  0  0  0  0  0  0  0  0
    2.5714    0.2711    0.1304 C   0  0  0  0  0  0  0  0  0  0  0  0
    3.0814    1.0079    1.0187 O   0  0  0  0  0  0  0  0  0  0  0  0
    3.0945   -1.1010   -0.0645 C   0  0  0  0  0  0  0  0  0  0  0  0
    3.0040   -1.7411   -1.3130 C   0  0  0  0  0  0  0  0  0  0  0  0
    3.4904   -3.0400   -1.4776 C   0  0  0  0  0  0  0  0  0  0  0  0
    4.0710   -3.7167   -0.4028 C   0  0  0  0  0  0  0  0  0  0  0  0
    4.5408   -4.9762   -0.5875 F   0  0  0  0  0  0  0  0  0  0  0  0
    4.1718   -3.0917    0.8492 C   0  0  0  0  0  0  0  0  0  0  0  0
    4.9083   -3.9389    2.2097 S   0  0  0  0  0  0  0  0  0  0  0  0
    6.6271   -3.9499    2.0260 N   0  0  0  0  0  0  0  0  0  0  0  0
    4.3972   -5.3513    2.2617 O   0  0  0  0  0  0  0  0  0  0  0  0
    4.5535   -3.2530    3.4994 O   0  0  0  0  0  0  0  0  0  0  0  0
    3.6961   -1.7818    1.0090 C   0  0  0  0  0  0  0  0  0  0  0  0
   -3.6278    0.0746    1.0709 C   0  0  1  0  0  0  0  0  0  0  0  0
   -4.6161   -0.7646    0.2172 C   0  0  0  0  0  0  0  0  0  0  0  0
   -3.7627   -1.6578   -0.6988 C   0  0  0  0  0  0  0  0  0  0  0  0
   -2.4593   -1.7009   -0.0018 C   0  0  0  0  0  0  0  0  0  0  0  0
   -1.4198   -2.6062   -0.2293 C   0  0  0  0  0  0  0  0  0  0  0  0
   -0.3037   -2.5802    0.6200 C   0  0  0  0  0  0  0  0  0  0  0  0
    0.7100   -3.4597    0.4285 F   0  0  0  0  0  0  0  0  0  0  0  0
   -0.2552   -1.6716    1.6925 C   0  0  0  0  0  0  0  0  0  0  0  0
    0.8061   -1.6729    2.5362 F   0  0  0  0  0  0  0  0  0  0  0  0
   -1.3131   -0.7740    1.9035 C   0  0  0  0  0  0  0  0  0  0  0  0
   -2.3920   -0.7722    1.0095 C   0  0  0  0  0  0  0  0  0  0  0  0
   -5.0856    2.1639    1.5159 H   0  0  0  0  0  0  0  0  0  0  0  0
   -5.3335    2.0359   -0.1567 H   0  0  0  0  0  0  0  0  0  0  0  0
   -3.1913    1.3796   -0.6219 H   0  0  0  0  0  0  0  0  0  0  0  0
   -2.5389    2.5520    2.1593 H   0  0  0  0  0  0  0  0  0  0  0  0
   -1.3556    1.6713    1.1718 H   0  0  0  0  0  0  0  0  0  0  0  0
   -0.5855    5.5035   -1.2704 H   0  0  0  0  0  0  0  0  0  0  0  0
   -2.0206    4.8193   -2.1570 H   0  0  0  0  0  0  0  0  0  0  0  0
    0.9225    4.5577   -2.7555 H   0  0  0  0  0  0  0  0  0  0  0  0
   -0.4892    4.4300   -3.8864 H   0  0  0  0  0  0  0  0  0  0  0  0
    0.9628    2.2169   -3.0770 H   0  0  0  0  0  0  0  0  0  0  0  0
   -0.8124    2.1549   -3.3998 H   0  0  0  0  0  0  0  0  0  0  0  0
   -0.9896    1.4160   -1.2284 H   0  0  0  0  0  0  0  0  0  0  0  0
    1.7129    2.8569   -0.7527 H   0  0  0  0  0  0  0  0  0  0  0  0
    0.7292    2.2661    0.6163 H   0  0  0  0  0  0  0  0  0  0  0  0
    0.9761    0.1040   -1.2965 H   0  0  0  0  0  0  0  0  0  0  0  0
    2.5805   -1.2353   -2.1703 H   0  0  0  0  0  0  0  0  0  0  0  0
    3.4203   -3.5217   -2.4444 H   0  0  0  0  0  0  0  0  0  0  0  0
    6.8351   -4.4182    1.1158 H   0  0  0  0  0  0  0  0  0  0  0  0
    6.9295   -2.9547    1.9286 H   0  0  0  0  0  0  0  0  0  0  0  0
    3.7769   -1.2985    1.9746 H   0  0  0  0  0  0  0  0  0  0  0  0
   -3.9843    0.1472    2.1223 H   0  0  0  0  0  0  0  0  0  0  0  0
   -5.2144   -1.4128    0.8957 H   0  0  0  0  0  0  0  0  0  0  0  0
   -5.3259   -0.1621   -0.3839 H   0  0  0  0  0  0  0  0  0  0  0  0
   -3.6363   -1.1895   -1.6987 H   0  0  0  0  0  0  0  0  0  0  0  0
   -4.2034   -2.6735   -0.7951 H   0  0  0  0  0  0  0  0  0  0  0  0
   -1.4855   -3.3321   -1.0295 H   0  0  0  0  0  0  0  0  0  0  0  0
   -1.2915   -0.0946    2.7459 H   0  0  0  0  0  0  0  0  0  0  0  0
  1  2  1  0
  2  3  1  0
  3  4  1  0
  4  5  2  0
  4  6  1  0
  6  7  1  0
  7  8  1  0
  8  9  1  0
  9 10  1  0
 10 11  1  0
 11 12  1  0
 12 13  1  0
 13 14  2  0
 13 15  1  0
 15 16  2  0
 16 17  1  0
 17 18  2  0
 18 19  1  0
 18 20  1  0
 20 21  1  0
 21 22  1  0
 21 23  2  0
 21 24  2  0
 20 25  2  0
  2 26  1  0
 26 27  1  0
 27 28  1  0
 28 29  1  0
 29 30  2  0
 30 31  1  0
 31 32  1  0
 31 33  2  0
 33 34  1  0
 33 35  1  0
 35 36  2  0
 10  6  1  0
 25 15  1  0
 36 26  1  0
 36 29  1  0
  1 37  1  0
  1 38  1  0
  2 39  1  6
  3 40  1  0
  3 41  1  0
  7 42  1  0
  7 43  1  0
  8 44  1  0
  8 45  1  0
  9 46  1  0
  9 47  1  0
 10 48  1  6
 11 49  1  0
 11 50  1  0
 12 51  1  0
 16 52  1  0
 17 53  1  0
 22 54  1  0
 22 55  1  0
 25 56  1  0
 26 57  1  1
 27 58  1  0
 27 59  1  0
 28 60  1  0
 28 61  1  0
 30 62  1  0
 35 63  1  0
M  END
$$$$
