
     RDKit          3D

 83 88  0  0  0  0  0  0  0  0999 V2000
   -4.0271    4.1084   -0.9825 C   0  0  0  0  0  0  0  0  0  0  0  0
   -4.4429    3.0340   -0.0816 C   0  0  0  0  0  0  0  0  0  0  0  0
   -4.7817    2.1467    0.6602 C   0  0  0  0  0  0  0  0  0  0  0  0
   -5.1844    1.0620    1.5605 C   0  0  0  0  0  0  0  0  0  0  0  0
   -4.2870   -0.0840    1.3977 N   0  0  0  0  0  0  0  0  0  0  0  0
   -4.5452   -1.2665    0.7765 C   0  0  0  0  0  0  0  0  0  0  0  0
   -5.7868   -1.5711    0.1253 N   0  0  0  0  0  0  0  0  0  0  0  0
   -6.1505   -0.8445   -1.0955 C   0  0  0  0  0  0  0  0  0  0  0  0
   -7.6717   -0.7156   -1.1977 C   0  0  0  0  0  0  0  0  0  0  0  0
   -8.3436   -2.0860   -1.0552 C   0  0  0  0  0  0  0  0  0  0  0  0
   -7.9396   -2.7619    0.2677 C   0  0  1  0  0  0  0  0  0  0  0  0
   -8.5469   -4.0902    0.3559 N   0  0  0  0  0  0  0  0  0  0  0  0
   -6.4084   -2.8778    0.3604 C   0  0  0  0  0  0  0  0  0  0  0  0
   -3.5190   -2.1539    0.8392 N   0  0  0  0  0  0  0  0  0  0  0  0
   -2.5809   -1.4688    1.5216 C   0  0  0  0  0  0  0  0  0  0  0  0
   -3.0292   -0.2355    1.8561 C   0  0  0  0  0  0  0  0  0  0  0  0
   -2.2070    0.6440    2.5515 C   0  0  0  0  0  0  0  0  0  0  0  0
   -2.6198    1.7926    2.8700 O   0  0  0  0  0  0  0  0  0  0  0  0
   -0.9327    0.2329    2.8736 N   0  0  0  0  0  0  0  0  0  0  0  0
   -0.0215    1.1682    3.5670 C   0  0  0  0  0  0  0  0  0  0  0  0
    0.5697    2.2051    2.5984 C   0  0  0  0  0  0  0  0  0  0  0  0
    1.4307    1.5629    1.5048 C   0  0  0  0  0  0  0  0  0  0  0  0
    2.0357    2.6172    0.6592 N   0  0  0  0  0  0  0  0  0  0  0  0
    3.3658    3.0617    1.1367 C   0  0  0  0  0  0  0  0  0  0  0  0
    4.4876    2.0539    0.8212 C   0  0  0  0  0  0  0  0  0  0  0  0
    4.4923    1.6776   -0.6659 C   0  0  0  0  0  0  0  0  0  0  0  0
    5.4894    0.6365   -0.9216 N   0  0  0  0  0  0  0  0  0  0  0  0
    6.5987    0.7561   -1.6705 C   0  0  0  0  0  0  0  0  0  0  0  0
    7.2398   -0.4675   -1.6095 C   0  0  0  0  0  0  0  0  0  0  0  0
    8.5096   -0.8610   -2.2644 C   0  0  0  0  0  0  0  0  0  0  0  0
    9.0183   -2.1610   -2.0854 C   0  0  0  0  0  0  0  0  0  0  0  0
   10.2153   -2.5447   -2.6979 C   0  0  0  0  0  0  0  0  0  0  0  0
   10.9171   -1.6378   -3.4944 C   0  0  0  0  0  0  0  0  0  0  0  0
   10.4233   -0.3449   -3.6801 C   0  0  0  0  0  0  0  0  0  0  0  0
    9.2266    0.0446   -3.0702 C   0  0  0  0  0  0  0  0  0  0  0  0
    6.5026   -1.2842   -0.8264 N   0  0  0  0  0  0  0  0  0  0  0  0
    5.4497   -0.5891   -0.4224 N   0  0  0  0  0  0  0  0  0  0  0  0
    3.1013    1.2019   -1.1019 C   0  0  0  0  0  0  0  0  0  0  0  0
    2.0526    2.2739   -0.7786 C   0  0  0  0  0  0  0  0  0  0  0  0
   -0.4983   -1.0342    2.5139 C   0  0  0  0  0  0  0  0  0  0  0  0
    0.6810   -1.3962    2.7876 O   0  0  0  0  0  0  0  0  0  0  0  0
   -1.3350   -1.9047    1.8501 N   0  0  0  0  0  0  0  0  0  0  0  0
   -0.8702   -3.2341    1.4321 C   0  0  0  0  0  0  0  0  0  0  0  0
   -4.3515    3.8703   -2.0163 H   0  0  0  0  0  0  0  0  0  0  0  0
   -2.9223    4.2067   -0.9549 H   0  0  0  0  0  0  0  0  0  0  0  0
   -4.4915    5.0628   -0.6594 H   0  0  0  0  0  0  0  0  0  0  0  0
   -5.1566    1.4205    2.6104 H   0  0  0  0  0  0  0  0  0  0  0  0
   -6.2321    0.7729    1.3368 H   0  0  0  0  0  0  0  0  0  0  0  0
   -5.6994    0.1694   -1.1059 H   0  0  0  0  0  0  0  0  0  0  0  0
   -5.7613   -1.3959   -1.9791 H   0  0  0  0  0  0  0  0  0  0  0  0
   -7.9398   -0.2715   -2.1804 H   0  0  0  0  0  0  0  0  0  0  0  0
   -8.0401   -0.0352   -0.3989 H   0  0  0  0  0  0  0  0  0  0  0  0
   -8.0557   -2.7321   -1.9142 H   0  0  0  0  0  0  0  0  0  0  0  0
   -9.4465   -1.9497   -1.0828 H   0  0  0  0  0  0  0  0  0  0  0  0
   -8.3018   -2.1362    1.1162 H   0  0  0  0  0  0  0  0  0  0  0  0
   -9.5869   -3.9768    0.3557 H   0  0  0  0  0  0  0  0  0  0  0  0
   -8.3040   -4.5017    1.2866 H   0  0  0  0  0  0  0  0  0  0  0  0
   -6.1367   -3.2535    1.3720 H   0  0  0  0  0  0  0  0  0  0  0  0
   -6.0325   -3.6040   -0.3938 H   0  0  0  0  0  0  0  0  0  0  0  0
   -0.5729    1.7025    4.3717 H   0  0  0  0  0  0  0  0  0  0  0  0
    0.8023    0.6305    4.0848 H   0  0  0  0  0  0  0  0  0  0  0  0
    1.1882    2.9151    3.1876 H   0  0  0  0  0  0  0  0  0  0  0  0
   -0.2490    2.7882    2.1245 H   0  0  0  0  0  0  0  0  0  0  0  0
    0.7736    0.9000    0.8998 H   0  0  0  0  0  0  0  0  0  0  0  0
    2.2026    0.9147    1.9702 H   0  0  0  0  0  0  0  0  0  0  0  0
    3.3422    3.2490    2.2318 H   0  0  0  0  0  0  0  0  0  0  0  0
    3.6114    4.0346    0.6572 H   0  0  0  0  0  0  0  0  0  0  0  0
    4.3723    1.1435    1.4461 H   0  0  0  0  0  0  0  0  0  0  0  0
    5.4662    2.5107    1.0844 H   0  0  0  0  0  0  0  0  0  0  0  0
    4.7525    2.5862   -1.2565 H   0  0  0  0  0  0  0  0  0  0  0  0
    6.9004    1.6498   -2.1999 H   0  0  0  0  0  0  0  0  0  0  0  0
    8.4917   -2.8816   -1.4723 H   0  0  0  0  0  0  0  0  0  0  0  0
   10.5988   -3.5467   -2.5545 H   0  0  0  0  0  0  0  0  0  0  0  0
   11.8435   -1.9367   -3.9677 H   0  0  0  0  0  0  0  0  0  0  0  0
   10.9683    0.3571   -4.2979 H   0  0  0  0  0  0  0  0  0  0  0  0
    8.8695    1.0521   -3.2328 H   0  0  0  0  0  0  0  0  0  0  0  0
    2.8366    0.2528   -0.5867 H   0  0  0  0  0  0  0  0  0  0  0  0
    3.1024    1.0104   -2.1968 H   0  0  0  0  0  0  0  0  0  0  0  0
    1.0484    1.9282   -1.1086 H   0  0  0  0  0  0  0  0  0  0  0  0
    2.2720    3.1910   -1.3687 H   0  0  0  0  0  0  0  0  0  0  0  0
   -1.7219   -3.9291    1.2721 H   0  0  0  0  0  0  0  0  0  0  0  0
   -0.2929   -3.1459    0.4877 H   0  0  0  0  0  0  0  0  0  0  0  0
   -0.2250   -3.6874    2.2148 H   0  0  0  0  0  0  0  0  0  0  0  0
  1  2  1  0
  2  3  3  0
  3  4  1  0
  4  5  1  0
  5  6  1  0
  6  7  1  0
  7  8  1  0
  8  9  1  0
  9 10  1  0
 10 11  1  0
 11 12  1  0
 11 13  1  0
  6 14  2  0
 14 15  1  0
 15 16  2  0
 16 17  1  0
 17 18  2  0
 17 19  1  0
 19 20  1  0
 20 21  1  0
 21 22  1  0
 22 23  1  0
 23 24  1  0
 24 25  1  0
 25 26  1  0
 26 27  1  0
 27 28  1  0
 28 29  2  0
 29 30  1  0
 30 31  2  0
 31 32  1  0
 32 33  2  0
 33 34  1  0
 34 35  2  0
 29 36  1  0
 36 37  2  0
 26 38  1  0
 38 39  1  0
 19 40  1  0
 40 41  2  0
 40 42  1  0
 42 43  1  0
 16  5  1  0
 39 23  1  0
 13  7  1  0
 42 15  1  0
 37 27  1  0
 35 30  1  0
  1 44  1  0
  1 45  1  0
  1 46  1  0
  4 47  1  0
  4 48  1  0
  8 49  1  0
  8 50  1  0
  9 51  1  0
  9 52  1  0
 10 53  1  0
 10 54  1  0
 11 55  1  1
 12 56  1  0
 12 57  1  0
 13 58  1  0
 13 59  1  0
 20 60  1  0
 20 61  1  0
 21 62  1  0
 21 63  1  0
 22 64  1  0
 22 65  1  0
 24 66  1  0
 24 67  1  0
 25 68  1  0
 25 69  1  0
 26 70  1  0
 28 71  1  0
 31 72  1  0
 32 73  1  0
 33 74  1  0
 34 75  1  0
 35 76  1  0
 38 77  1  0
 38 78  1  0
 39 79  1  0
 39 80  1  0
 43 81  1  0
 43 82  1  0
 43 83  1  0
M  END
$$$$
