
     RDKit          3D

 57 58  0  0  0  0  0  0  0  0999 V2000
   -1.7793    3.1380    0.0283 C   0  0  0  0  0  0  0  0  0  0  0  0
   -1.8964    1.7217   -0.5423 C   0  0  0  0  0  0  0  0  0  0  0  0
   -0.6046    0.8731   -0.3499 C   0  0  0  0  0  0  0  0  0  0  0  0
    0.5483    1.5635   -1.1145 C   0  0  0  0  0  0  0  0  0  0  0  0
   -0.7232   -0.6433   -0.7900 C   0  0  1  0  0  0  0  0  0  0  0  0
    0.0829   -1.6255    0.1185 C   0  0  0  0  0  0  0  0  0  0  0  0
    1.6323   -1.5401    0.0230 C   0  0  2  0  0  0  0  0  0  0  0  0
    2.2394   -2.8266    0.3734 N   0  0  0  0  0  0  0  0  0  0  0  0
    2.2207   -0.4777    0.9316 C   0  0  0  0  0  0  0  0  0  0  0  0
    1.7120   -0.2966    2.0721 O   0  0  0  0  0  0  0  0  0  0  0  0
    3.3966    0.2753    0.5587 N   0  0  0  0  0  0  0  0  0  0  0  0
    3.5521    1.6584    1.0349 C   0  0  0  0  0  0  0  0  0  0  0  0
    5.0040    1.9254    1.4379 C   0  0  0  0  0  0  0  0  0  0  0  0
    5.9568    1.5540    0.2988 C   0  0  0  0  0  0  0  0  0  0  0  0
    5.7680    0.0892   -0.1045 C   0  0  0  0  0  0  0  0  0  0  0  0
    4.3128   -0.1948   -0.4926 C   0  0  0  0  0  0  0  0  0  0  0  0
   -2.1166   -1.1317   -0.9354 N   0  0  0  0  0  0  0  0  0  0  0  0
   -2.8217   -1.4016    0.3332 C   0  0  0  0  0  0  0  0  0  0  0  0
   -4.3112   -1.4567    0.1139 C   0  0  0  0  0  0  0  0  0  0  0  0
   -5.1478   -0.4444    0.6132 C   0  0  0  0  0  0  0  0  0  0  0  0
   -6.5267   -0.4947    0.3864 C   0  0  0  0  0  0  0  0  0  0  0  0
   -7.0801   -1.5528   -0.3420 C   0  0  0  0  0  0  0  0  0  0  0  0
   -8.8100   -1.6133   -0.6261 Cl  0  0  0  0  0  0  0  0  0  0  0  0
   -6.2523   -2.5618   -0.8449 C   0  0  0  0  0  0  0  0  0  0  0  0
   -4.8731   -2.5142   -0.6199 C   0  0  0  0  0  0  0  0  0  0  0  0
   -1.0918    3.7568   -0.5847 H   0  0  0  0  0  0  0  0  0  0  0  0
   -2.7769    3.6260    0.0139 H   0  0  0  0  0  0  0  0  0  0  0  0
   -1.4180    3.1068    1.0781 H   0  0  0  0  0  0  0  0  0  0  0  0
   -2.1543    1.7905   -1.6217 H   0  0  0  0  0  0  0  0  0  0  0  0
   -2.7521    1.2572   -0.0218 H   0  0  0  0  0  0  0  0  0  0  0  0
   -0.3613    0.8962    0.7347 H   0  0  0  0  0  0  0  0  0  0  0  0
    0.8678    2.4855   -0.5863 H   0  0  0  0  0  0  0  0  0  0  0  0
    0.2308    1.8292   -2.1456 H   0  0  0  0  0  0  0  0  0  0  0  0
    1.4374    0.9189   -1.2105 H   0  0  0  0  0  0  0  0  0  0  0  0
   -0.2830   -0.7329   -1.8084 H   0  0  0  0  0  0  0  0  0  0  0  0
   -0.2409   -1.5283    1.1766 H   0  0  0  0  0  0  0  0  0  0  0  0
   -0.2105   -2.6527   -0.1933 H   0  0  0  0  0  0  0  0  0  0  0  0
    1.8978   -1.3172   -1.0322 H   0  0  0  0  0  0  0  0  0  0  0  0
    1.8610   -3.1506    1.2940 H   0  0  0  0  0  0  0  0  0  0  0  0
    1.9714   -3.5367   -0.3467 H   0  0  0  0  0  0  0  0  0  0  0  0
    3.2598    2.3588    0.2231 H   0  0  0  0  0  0  0  0  0  0  0  0
    2.8983    1.8639    1.9095 H   0  0  0  0  0  0  0  0  0  0  0  0
    5.1269    3.0013    1.6873 H   0  0  0  0  0  0  0  0  0  0  0  0
    5.2527    1.3292    2.3433 H   0  0  0  0  0  0  0  0  0  0  0  0
    5.7701    2.2123   -0.5782 H   0  0  0  0  0  0  0  0  0  0  0  0
    7.0056    1.7117    0.6306 H   0  0  0  0  0  0  0  0  0  0  0  0
    6.4321   -0.1462   -0.9639 H   0  0  0  0  0  0  0  0  0  0  0  0
    6.0576   -0.5684    0.7446 H   0  0  0  0  0  0  0  0  0  0  0  0
    4.2181   -1.2895   -0.6481 H   0  0  0  0  0  0  0  0  0  0  0  0
    4.0697    0.3178   -1.4485 H   0  0  0  0  0  0  0  0  0  0  0  0
   -2.6678   -0.5105   -1.5713 H   0  0  0  0  0  0  0  0  0  0  0  0
   -2.5007   -2.3905    0.7248 H   0  0  0  0  0  0  0  0  0  0  0  0
   -2.5656   -0.6515    1.1123 H   0  0  0  0  0  0  0  0  0  0  0  0
   -4.7363    0.3815    1.1795 H   0  0  0  0  0  0  0  0  0  0  0  0
   -7.1634    0.2891    0.7766 H   0  0  0  0  0  0  0  0  0  0  0  0
   -6.6756   -3.3817   -1.4111 H   0  0  0  0  0  0  0  0  0  0  0  0
   -4.2419   -3.2989   -1.0184 H   0  0  0  0  0  0  0  0  0  0  0  0
  1  2  1  0
  2  3  1  0
  3  4  1  0
  3  5  1  0
  5  6  1  0
  6  7  1  0
  7  8  1  0
  7  9  1  0
  9 10  2  0
  9 11  1  0
 11 12  1  0
 12 13  1  0
 13 14  1  0
 14 15  1  0
 15 16  1  0
  5 17  1  0
 17 18  1  0
 18 19  1  0
 19 20  2  0
 20 21  1  0
 21 22  2  0
 22 23  1  0
 22 24  1  0
 24 25  2  0
 16 11  1  0
 25 19  1  0
  1 26  1  0
  1 27  1  0
  1 28  1  0
  2 29  1  0
  2 30  1  0
  3 31  1  0
  4 32  1  0
  4 33  1  0
  4 34  1  0
  5 35  1  6
  6 36  1  0
  6 37  1  0
  7 38  1  6
  8 39  1  0
  8 40  1  0
 12 41  1  0
 12 42  1  0
 13 43  1  0
 13 44  1  0
 14 45  1  0
 14 46  1  0
 15 47  1  0
 15 48  1  0
 16 49  1  0
 16 50  1  0
 17 51  1  0
 18 52  1  0
 18 53  1  0
 20 54  1  0
 21 55  1  0
 24 56  1  0
 25 57  1  0
M  END
$$$$
