
     RDKit          3D

 53 57  0  0  0  0  0  0  0  0999 V2000
   -7.5564   -1.3066   -0.0968 N   0  0  0  0  0  0  0  0  0  0  0  0
   -6.9507   -0.5191    0.4967 C   0  0  0  0  0  0  0  0  0  0  0  0
   -6.1788    0.4829    1.2520 C   0  0  2  0  0  0  0  0  0  0  0  0
   -7.0281    1.7211    1.5505 C   0  0  0  0  0  0  0  0  0  0  0  0
   -6.1119    2.9173    1.2968 C   0  0  0  0  0  0  0  0  0  0  0  0
   -5.5452    3.3340    2.4907 F   0  0  0  0  0  0  0  0  0  0  0  0
   -6.8118    3.9690    0.7291 F   0  0  0  0  0  0  0  0  0  0  0  0
   -5.0245    2.4134    0.3539 C   0  0  0  0  0  0  0  0  0  0  0  0
   -5.0467    0.9637    0.4703 N   0  0  0  0  0  0  0  0  0  0  0  0
   -3.9924    0.1104   -0.0162 C   0  0  0  0  0  0  0  0  0  0  0  0
   -3.9866   -1.1122    0.2964 O   0  0  0  0  0  0  0  0  0  0  0  0
   -2.8973    0.6658   -0.8897 C   0  0  0  0  0  0  0  0  0  0  0  0
   -2.0269   -0.3935   -1.3992 N   0  0  0  0  0  0  0  0  0  0  0  0
   -1.0168   -1.0140   -0.5892 C   0  0  0  0  0  0  0  0  0  0  0  0
   -0.8353   -0.6270    0.5975 O   0  0  0  0  0  0  0  0  0  0  0  0
   -0.2203   -2.1412   -1.1253 C   0  0  0  0  0  0  0  0  0  0  0  0
   -0.9000   -3.1756   -1.7870 C   0  0  0  0  0  0  0  0  0  0  0  0
   -0.1999   -4.2874   -2.2513 C   0  0  0  0  0  0  0  0  0  0  0  0
    1.1413   -4.3741   -2.0697 N   0  0  0  0  0  0  0  0  0  0  0  0
    1.8466   -3.3927   -1.4484 C   0  0  0  0  0  0  0  0  0  0  0  0
    3.2294   -3.5286   -1.3023 C   0  0  0  0  0  0  0  0  0  0  0  0
    3.9760   -2.5203   -0.6933 C   0  0  0  0  0  0  0  0  0  0  0  0
    3.3517   -1.3510   -0.2291 C   0  0  0  0  0  0  0  0  0  0  0  0
    4.1530   -0.2715    0.4019 C   0  0  0  0  0  0  0  0  0  0  0  0
    3.6624    0.4108    1.5490 C   0  0  0  0  0  0  0  0  0  0  0  0
    4.4118    1.4356    2.1542 C   0  0  0  0  0  0  0  0  0  0  0  0
    5.6449    1.7583    1.5951 C   0  0  0  0  0  0  0  0  0  0  0  0
    6.5099    2.6973    2.0118 N   0  0  0  0  0  0  0  0  0  0  0  0
    7.5566    2.6406    1.1567 C   0  0  0  0  0  0  0  0  0  0  0  0
    7.3533    1.6588    0.1921 C   0  0  0  0  0  0  0  0  0  0  0  0
    6.1266    1.1079    0.4925 C   0  0  0  0  0  0  0  0  0  0  0  0
    5.4133    0.0887   -0.1331 C   0  0  0  0  0  0  0  0  0  0  0  0
    1.9590   -1.2125   -0.3750 C   0  0  0  0  0  0  0  0  0  0  0  0
    1.1868   -2.2362   -0.9638 C   0  0  0  0  0  0  0  0  0  0  0  0
   -5.8103    0.0322    2.1991 H   0  0  0  0  0  0  0  0  0  0  0  0
   -7.3992    1.7092    2.5986 H   0  0  0  0  0  0  0  0  0  0  0  0
   -7.9051    1.7857    0.8664 H   0  0  0  0  0  0  0  0  0  0  0  0
   -4.0339    2.8178    0.6548 H   0  0  0  0  0  0  0  0  0  0  0  0
   -5.2441    2.7021   -0.6968 H   0  0  0  0  0  0  0  0  0  0  0  0
   -2.2947    1.4060   -0.3217 H   0  0  0  0  0  0  0  0  0  0  0  0
   -3.3652    1.1921   -1.7490 H   0  0  0  0  0  0  0  0  0  0  0  0
   -2.1210   -0.6730   -2.4018 H   0  0  0  0  0  0  0  0  0  0  0  0
   -1.9746   -3.1370   -1.9195 H   0  0  0  0  0  0  0  0  0  0  0  0
   -0.7267   -5.0895   -2.7506 H   0  0  0  0  0  0  0  0  0  0  0  0
    3.7304   -4.4184   -1.6639 H   0  0  0  0  0  0  0  0  0  0  0  0
    5.0439   -2.6585   -0.5787 H   0  0  0  0  0  0  0  0  0  0  0  0
    2.7090    0.1386    1.9839 H   0  0  0  0  0  0  0  0  0  0  0  0
    4.0414    1.9540    3.0291 H   0  0  0  0  0  0  0  0  0  0  0  0
    6.4004    3.3414    2.8264 H   0  0  0  0  0  0  0  0  0  0  0  0
    8.4272    3.2793    1.2258 H   0  0  0  0  0  0  0  0  0  0  0  0
    8.0168    1.3880   -0.6185 H   0  0  0  0  0  0  0  0  0  0  0  0
    5.8154   -0.3951   -1.0145 H   0  0  0  0  0  0  0  0  0  0  0  0
    1.4972   -0.2871   -0.0616 H   0  0  0  0  0  0  0  0  0  0  0  0
  1  2  3  0
  2  3  1  0
  3  4  1  0
  4  5  1  0
  5  6  1  0
  5  7  1  0
  5  8  1  0
  8  9  1  0
  9 10  1  0
 10 11  2  0
 10 12  1  0
 12 13  1  0
 13 14  1  0
 14 15  2  0
 14 16  1  0
 16 17  2  0
 17 18  1  0
 18 19  2  0
 19 20  1  0
 20 21  2  0
 21 22  1  0
 22 23  2  0
 23 24  1  0
 24 25  2  0
 25 26  1  0
 26 27  2  0
 27 28  1  0
 28 29  1  0
 29 30  2  0
 30 31  1  0
 31 32  2  0
 23 33  1  0
 33 34  2  0
  9  3  1  0
 34 16  1  0
 34 20  1  0
 32 24  1  0
 31 27  1  0
  3 35  1  1
  4 36  1  0
  4 37  1  0
  8 38  1  0
  8 39  1  0
 12 40  1  0
 12 41  1  0
 13 42  1  0
 17 43  1  0
 18 44  1  0
 21 45  1  0
 22 46  1  0
 25 47  1  0
 26 48  1  0
 28 49  1  0
 29 50  1  0
 30 51  1  0
 32 52  1  0
 33 53  1  0
M  END
$$$$
