
     RDKit          3D

 52 54  0  0  0  0  0  0  0  0999 V2000
    1.5197   -1.1426    1.1218 N   0  0  0  0  0  0  0  0  0  0  0  0
    1.7086   -0.0047    0.2149 C   0  0  1  0  0  0  0  0  0  0  0  0
    0.3587    0.6688   -0.1423 C   0  0  0  0  0  0  0  0  0  0  0  0
   -0.4987   -0.1192   -1.1040 C   0  0  0  0  0  0  0  0  0  0  0  0
   -0.1493   -1.2663   -1.4942 O   0  0  0  0  0  0  0  0  0  0  0  0
   -1.7167    0.4616   -1.6054 N   0  0  0  0  0  0  0  0  0  0  0  0
   -1.5999    1.5232   -2.6079 C   0  0  0  0  0  0  0  0  0  0  0  0
   -1.7648    0.9057   -4.0048 C   0  0  0  0  0  0  0  0  0  0  0  0
   -3.0189    0.1402   -4.1117 N   0  0  0  0  0  0  0  0  0  0  0  0
   -3.1116   -0.9044   -3.0766 C   0  0  0  0  0  0  0  0  0  0  0  0
   -2.9812   -0.2936   -1.6692 C   0  0  1  0  0  0  0  0  0  0  0  0
   -3.1403   -1.3652   -0.5647 C   0  0  0  0  0  0  0  0  0  0  0  0
   -3.0099   -0.7938    0.8276 C   0  0  0  0  0  0  0  0  0  0  0  0
   -3.8912    0.2054    1.2786 C   0  0  0  0  0  0  0  0  0  0  0  0
   -3.7651    0.7276    2.5695 C   0  0  0  0  0  0  0  0  0  0  0  0
   -2.7709    0.2478    3.4257 C   0  0  0  0  0  0  0  0  0  0  0  0
   -1.9077   -0.7627    2.9959 C   0  0  0  0  0  0  0  0  0  0  0  0
   -2.0301   -1.2875    1.7060 C   0  0  0  0  0  0  0  0  0  0  0  0
    2.6594    1.0193    0.8653 C   0  0  0  0  0  0  0  0  0  0  0  0
    4.0146    0.4165    1.1457 C   0  0  0  0  0  0  0  0  0  0  0  0
    4.9664    0.3297    0.1151 C   0  0  0  0  0  0  0  0  0  0  0  0
    6.2156   -0.2514    0.3538 C   0  0  0  0  0  0  0  0  0  0  0  0
    7.1291   -0.3281   -0.6451 F   0  0  0  0  0  0  0  0  0  0  0  0
    6.5219   -0.7563    1.6201 C   0  0  0  0  0  0  0  0  0  0  0  0
    5.5790   -0.6839    2.6486 C   0  0  0  0  0  0  0  0  0  0  0  0
    4.3274   -0.1038    2.4164 C   0  0  0  0  0  0  0  0  0  0  0  0
    3.4238   -0.0538    3.4279 F   0  0  0  0  0  0  0  0  0  0  0  0
    0.9925   -1.8999    0.6334 H   0  0  0  0  0  0  0  0  0  0  0  0
    0.9595   -0.8416    1.9520 H   0  0  0  0  0  0  0  0  0  0  0  0
    2.1891   -0.3643   -0.7231 H   0  0  0  0  0  0  0  0  0  0  0  0
    0.5639    1.6562   -0.6055 H   0  0  0  0  0  0  0  0  0  0  0  0
   -0.2252    0.8642    0.7824 H   0  0  0  0  0  0  0  0  0  0  0  0
   -2.3938    2.2830   -2.4393 H   0  0  0  0  0  0  0  0  0  0  0  0
   -0.6190    2.0406   -2.5449 H   0  0  0  0  0  0  0  0  0  0  0  0
   -0.9020    0.2387   -4.2228 H   0  0  0  0  0  0  0  0  0  0  0  0
   -1.7633    1.7157   -4.7656 H   0  0  0  0  0  0  0  0  0  0  0  0
   -3.8255    0.7992   -4.0002 H   0  0  0  0  0  0  0  0  0  0  0  0
   -4.0923   -1.4195   -3.1714 H   0  0  0  0  0  0  0  0  0  0  0  0
   -2.3159   -1.6635   -3.2424 H   0  0  0  0  0  0  0  0  0  0  0  0
   -3.8212    0.4266   -1.5508 H   0  0  0  0  0  0  0  0  0  0  0  0
   -4.1495   -1.8231   -0.6529 H   0  0  0  0  0  0  0  0  0  0  0  0
   -2.4113   -2.1883   -0.7249 H   0  0  0  0  0  0  0  0  0  0  0  0
   -4.6771    0.5789    0.6351 H   0  0  0  0  0  0  0  0  0  0  0  0
   -4.4414    1.5021    2.9076 H   0  0  0  0  0  0  0  0  0  0  0  0
   -2.6750    0.6530    4.4246 H   0  0  0  0  0  0  0  0  0  0  0  0
   -1.1442   -1.1412    3.6632 H   0  0  0  0  0  0  0  0  0  0  0  0
   -1.3592   -2.0765    1.3925 H   0  0  0  0  0  0  0  0  0  0  0  0
    2.2070    1.4133    1.8017 H   0  0  0  0  0  0  0  0  0  0  0  0
    2.7912    1.8901    0.1857 H   0  0  0  0  0  0  0  0  0  0  0  0
    4.7380    0.7109   -0.8727 H   0  0  0  0  0  0  0  0  0  0  0  0
    7.4885   -1.2071    1.8047 H   0  0  0  0  0  0  0  0  0  0  0  0
    5.8182   -1.0809    3.6268 H   0  0  0  0  0  0  0  0  0  0  0  0
  1  2  1  0
  2  3  1  0
  3  4  1  0
  4  5  2  0
  4  6  1  0
  6  7  1  0
  7  8  1  0
  8  9  1  0
  9 10  1  0
 10 11  1  0
 11 12  1  0
 12 13  1  0
 13 14  2  0
 14 15  1  0
 15 16  2  0
 16 17  1  0
 17 18  2  0
  2 19  1  0
 19 20  1  0
 20 21  2  0
 21 22  1  0
 22 23  1  0
 22 24  2  0
 24 25  1  0
 25 26  2  0
 26 27  1  0
 11  6  1  0
 18 13  1  0
 26 20  1  0
  1 28  1  0
  1 29  1  0
  2 30  1  6
  3 31  1  0
  3 32  1  0
  7 33  1  0
  7 34  1  0
  8 35  1  0
  8 36  1  0
  9 37  1  0
 10 38  1  0
 10 39  1  0
 11 40  1  1
 12 41  1  0
 12 42  1  0
 14 43  1  0
 15 44  1  0
 16 45  1  0
 17 46  1  0
 18 47  1  0
 19 48  1  0
 19 49  1  0
 21 50  1  0
 24 51  1  0
 25 52  1  0
M  END
$$$$
