
     RDKit          3D

 54 57  0  0  0  0  0  0  0  0999 V2000
   -0.9136    5.7286    0.6767 C   0  0  0  0  0  0  0  0  0  0  0  0
   -0.9533    4.9771   -0.2648 C   0  0  0  0  0  0  0  0  0  0  0  0
   -1.0019    4.0605   -1.4091 C   0  0  0  0  0  0  0  0  0  0  0  0
   -1.7765    2.8588   -1.0592 N   0  0  0  0  0  0  0  0  0  0  0  0
   -3.1416    2.8041   -1.2395 C   0  0  0  0  0  0  0  0  0  0  0  0
   -3.7478    3.8077   -1.7112 O   0  0  0  0  0  0  0  0  0  0  0  0
   -3.8546    1.6657   -0.9057 N   0  0  0  0  0  0  0  0  0  0  0  0
   -5.3141    1.6327   -1.1020 C   0  0  0  0  0  0  0  0  0  0  0  0
   -3.2191    0.5928   -0.3224 C   0  0  0  0  0  0  0  0  0  0  0  0
   -3.8673   -0.4325    0.0204 O   0  0  0  0  0  0  0  0  0  0  0  0
   -1.8430    0.6714   -0.1140 C   0  0  0  0  0  0  0  0  0  0  0  0
   -1.1644    1.7852   -0.4893 C   0  0  0  0  0  0  0  0  0  0  0  0
    0.1518    1.6585   -0.2358 N   0  0  0  0  0  0  0  0  0  0  0  0
    0.2259    0.4224    0.3157 C   0  0  0  0  0  0  0  0  0  0  0  0
    1.4700   -0.1662    0.7068 N   0  0  0  0  0  0  0  0  0  0  0  0
    2.4388   -0.5353   -0.3299 C   0  0  0  0  0  0  0  0  0  0  0  0
    3.6724   -1.2056    0.2821 C   0  0  0  0  0  0  0  0  0  0  0  0
    4.2665   -0.3461    1.4093 C   0  0  0  0  0  0  0  0  0  0  0  0
    3.2060    0.1919    2.4180 C   0  0  0  0  0  0  0  0  0  0  0  0
    3.1908    1.6573    2.4388 N   0  0  0  0  0  0  0  0  0  0  0  0
    1.7885   -0.3314    2.1283 C   0  0  0  0  0  0  0  0  0  0  0  0
   -0.9705   -0.2160    0.4118 N   0  0  0  0  0  0  0  0  0  0  0  0
   -1.1796   -1.6102    0.8246 C   0  0  0  0  0  0  0  0  0  0  0  0
   -0.6945   -2.5630   -0.2506 C   0  0  0  0  0  0  0  0  0  0  0  0
   -1.1737   -2.4037   -1.5648 C   0  0  0  0  0  0  0  0  0  0  0  0
   -0.7380   -3.2449   -2.5902 C   0  0  0  0  0  0  0  0  0  0  0  0
    0.1708   -4.2664   -2.3185 C   0  0  0  0  0  0  0  0  0  0  0  0
    0.6376   -4.4586   -1.0175 C   0  0  0  0  0  0  0  0  0  0  0  0
    0.2071   -3.6227    0.0229 C   0  0  0  0  0  0  0  0  0  0  0  0
    0.6926   -3.8921    1.3546 C   0  0  0  0  0  0  0  0  0  0  0  0
    1.0820   -4.1133    2.4218 N   0  0  0  0  0  0  0  0  0  0  0  0
   -0.8789    6.3881    1.5037 H   0  0  0  0  0  0  0  0  0  0  0  0
    0.0353    3.7910   -1.7029 H   0  0  0  0  0  0  0  0  0  0  0  0
   -1.4523    4.5844   -2.2790 H   0  0  0  0  0  0  0  0  0  0  0  0
   -5.8197    2.0461   -0.2040 H   0  0  0  0  0  0  0  0  0  0  0  0
   -5.6757    0.5974   -1.2798 H   0  0  0  0  0  0  0  0  0  0  0  0
   -5.6128    2.2238   -1.9940 H   0  0  0  0  0  0  0  0  0  0  0  0
    1.9647   -1.2380   -1.0487 H   0  0  0  0  0  0  0  0  0  0  0  0
    2.7508    0.3767   -0.8839 H   0  0  0  0  0  0  0  0  0  0  0  0
    3.3861   -2.2014    0.6864 H   0  0  0  0  0  0  0  0  0  0  0  0
    4.4378   -1.3687   -0.5070 H   0  0  0  0  0  0  0  0  0  0  0  0
    5.0154   -0.9587    1.9569 H   0  0  0  0  0  0  0  0  0  0  0  0
    4.8277    0.4956    0.9468 H   0  0  0  0  0  0  0  0  0  0  0  0
    3.4824   -0.1589    3.4376 H   0  0  0  0  0  0  0  0  0  0  0  0
    3.0260    2.0171    1.4700 H   0  0  0  0  0  0  0  0  0  0  0  0
    4.1312    1.9979    2.7455 H   0  0  0  0  0  0  0  0  0  0  0  0
    1.7358   -1.4075    2.3919 H   0  0  0  0  0  0  0  0  0  0  0  0
    1.0498    0.2053    2.7647 H   0  0  0  0  0  0  0  0  0  0  0  0
   -2.2447   -1.8160    1.0369 H   0  0  0  0  0  0  0  0  0  0  0  0
   -0.6559   -1.7716    1.7873 H   0  0  0  0  0  0  0  0  0  0  0  0
   -1.8828   -1.6215   -1.8013 H   0  0  0  0  0  0  0  0  0  0  0  0
   -1.1069   -3.1043   -3.5980 H   0  0  0  0  0  0  0  0  0  0  0  0
    0.5072   -4.9169   -3.1155 H   0  0  0  0  0  0  0  0  0  0  0  0
    1.3324   -5.2667   -0.8206 H   0  0  0  0  0  0  0  0  0  0  0  0
  1  2  3  0
  2  3  1  0
  3  4  1  0
  4  5  1  0
  5  6  2  0
  5  7  1  0
  7  8  1  0
  7  9  1  0
  9 10  2  0
  9 11  1  0
 11 12  2  0
 12 13  1  0
 13 14  2  0
 14 15  1  0
 15 16  1  0
 16 17  1  0
 17 18  1  0
 18 19  1  0
 19 20  1  0
 19 21  1  0
 14 22  1  0
 22 23  1  0
 23 24  1  0
 24 25  2  0
 25 26  1  0
 26 27  2  0
 27 28  1  0
 28 29  2  0
 29 30  1  0
 30 31  3  0
 12  4  1  0
 21 15  1  0
 29 24  1  0
 22 11  1  0
  1 32  1  0
  3 33  1  0
  3 34  1  0
  8 35  1  0
  8 36  1  0
  8 37  1  0
 16 38  1  0
 16 39  1  0
 17 40  1  0
 17 41  1  0
 18 42  1  0
 18 43  1  0
 19 44  1  0
 20 45  1  0
 20 46  1  0
 21 47  1  0
 21 48  1  0
 23 49  1  0
 23 50  1  0
 25 51  1  0
 26 52  1  0
 27 53  1  0
 28 54  1  0
M  END
$$$$
