
     RDKit          3D

 51 51  0  0  0  0  0  0  0  0999 V2000
    6.7690    0.3012   -0.0282 C   0  0  0  0  0  0  0  0  0  0  0  0
    5.8174   -0.8195    0.3742 C   0  0  0  0  0  0  0  0  0  0  0  0
    4.4848   -0.5198   -0.0360 O   0  0  0  0  0  0  0  0  0  0  0  0
    4.0415   -0.6280   -1.3606 C   0  0  0  0  0  0  0  0  0  0  0  0
    4.8137   -1.0557   -2.2608 O   0  0  0  0  0  0  0  0  0  0  0  0
    2.6656   -0.2516   -1.7186 C   0  0  0  0  0  0  0  0  0  0  0  0
    1.7939    0.2013   -0.8093 C   0  0  0  0  0  0  0  0  0  0  0  0
    0.4028    0.5833   -1.1647 C   0  0  0  0  0  0  0  0  0  0  0  0
    0.1748    1.3139   -2.3385 C   0  0  0  0  0  0  0  0  0  0  0  0
   -1.0717    1.7298   -2.6625 N   0  0  0  0  0  0  0  0  0  0  0  0
   -2.1594    1.4691   -1.8931 C   0  0  0  0  0  0  0  0  0  0  0  0
   -3.4835    2.0131   -2.3695 C   0  0  0  0  0  0  0  0  0  0  0  0
   -3.7722    3.2856   -1.7151 N   0  0  0  0  0  0  0  0  0  0  0  0
   -1.9985    0.7464   -0.6817 C   0  0  0  0  0  0  0  0  0  0  0  0
   -3.0864    0.4648    0.1708 C   0  0  0  0  0  0  0  0  0  0  0  0
   -2.9103   -0.2724    1.3539 C   0  0  0  0  0  0  0  0  0  0  0  0
   -3.9784   -0.5611    2.2197 O   0  0  0  0  0  0  0  0  0  0  0  0
   -5.3256   -0.1487    2.0123 C   0  0  0  0  0  0  0  0  0  0  0  0
   -1.6402   -0.7452    1.6944 C   0  0  0  0  0  0  0  0  0  0  0  0
   -1.5060   -1.4909    2.8774 O   0  0  0  0  0  0  0  0  0  0  0  0
   -0.2815   -2.0357    3.3589 C   0  0  0  0  0  0  0  0  0  0  0  0
   -0.5456   -0.4688    0.8579 C   0  0  0  0  0  0  0  0  0  0  0  0
   -0.7006    0.2901   -0.3218 C   0  0  0  0  0  0  0  0  0  0  0  0
    0.7665    0.0504   -1.5390 O   0  0  0  0  0  0  0  0  0  0  0  0
    0.4729    0.0278   -0.3137 C   0  0  0  0  0  0  0  0  0  0  0  0
    1.4843   -0.0302    0.6405 O   0  0  0  0  0  0  0  0  0  0  0  0
   -0.9593    0.0034    0.1119 C   0  0  0  0  0  0  0  0  0  0  0  0
   -1.4327   -1.2937    0.0540 F   0  0  0  0  0  0  0  0  0  0  0  0
   -1.7152    0.8031   -0.7261 F   0  0  0  0  0  0  0  0  0  0  0  0
   -1.0757    0.4728    1.4075 F   0  0  0  0  0  0  0  0  0  0  0  0
    6.8098    0.3970   -1.1332 H   0  0  0  0  0  0  0  0  0  0  0  0
    6.4269    1.2633    0.4085 H   0  0  0  0  0  0  0  0  0  0  0  0
    7.7894    0.0776    0.3481 H   0  0  0  0  0  0  0  0  0  0  0  0
    5.8324   -0.9198    1.4799 H   0  0  0  0  0  0  0  0  0  0  0  0
    6.1503   -1.7854   -0.0642 H   0  0  0  0  0  0  0  0  0  0  0  0
    2.3596   -0.3684   -2.7514 H   0  0  0  0  0  0  0  0  0  0  0  0
    2.1030    0.2862    0.2248 H   0  0  0  0  0  0  0  0  0  0  0  0
    0.9954    1.5829   -2.9909 H   0  0  0  0  0  0  0  0  0  0  0  0
   -4.3091    1.2872   -2.2095 H   0  0  0  0  0  0  0  0  0  0  0  0
   -3.4301    2.1814   -3.4678 H   0  0  0  0  0  0  0  0  0  0  0  0
   -4.6497    3.6680   -2.1363 H   0  0  0  0  0  0  0  0  0  0  0  0
   -3.9830    3.1054   -0.7073 H   0  0  0  0  0  0  0  0  0  0  0  0
   -4.0758    0.8145   -0.0728 H   0  0  0  0  0  0  0  0  0  0  0  0
   -5.9496   -0.5139    2.8534 H   0  0  0  0  0  0  0  0  0  0  0  0
   -5.3855    0.9598    1.9812 H   0  0  0  0  0  0  0  0  0  0  0  0
   -5.7164   -0.5810    1.0670 H   0  0  0  0  0  0  0  0  0  0  0  0
    0.1291   -2.7606    2.6246 H   0  0  0  0  0  0  0  0  0  0  0  0
    0.4511   -1.2225    3.5466 H   0  0  0  0  0  0  0  0  0  0  0  0
   -0.4725   -2.5679    4.3132 H   0  0  0  0  0  0  0  0  0  0  0  0
    0.4212   -0.8636    1.1273 H   0  0  0  0  0  0  0  0  0  0  0  0
    2.4592   -0.0337    0.3649 H   0  0  0  0  0  0  0  0  0  0  0  0
  1  2  1  0
  2  3  1  0
  3  4  1  0
  4  5  2  0
  4  6  1  0
  6  7  2  0
  7  8  1  0
  8  9  2  0
  9 10  1  0
 10 11  2  0
 11 12  1  0
 12 13  1  0
 11 14  1  0
 14 15  2  0
 15 16  1  0
 16 17  1  0
 17 18  1  0
 16 19  2  0
 19 20  1  0
 20 21  1  0
 19 22  1  0
 22 23  2  0
 24 25  2  0
 25 26  1  0
 25 27  1  0
 27 28  1  0
 27 29  1  0
 27 30  1  0
 23  8  1  0
 23 14  1  0
  1 31  1  0
  1 32  1  0
  1 33  1  0
  2 34  1  0
  2 35  1  0
  6 36  1  0
  7 37  1  0
  9 38  1  0
 12 39  1  0
 12 40  1  0
 13 41  1  0
 13 42  1  0
 15 43  1  0
 18 44  1  0
 18 45  1  0
 18 46  1  0
 21 47  1  0
 21 48  1  0
 21 49  1  0
 22 50  1  0
 26 51  1  0
M  END
$$$$
