
     RDKit          3D

 63 67  0  0  0  0  0  0  0  0999 V2000
   -7.3965   -4.3528    0.5091 C   0  0  0  0  0  0  0  0  0  0  0  0
   -7.4857   -2.9430    0.1095 N   0  0  0  0  0  0  0  0  0  0  0  0
   -8.7526   -2.4389   -0.4344 C   0  0  0  0  0  0  0  0  0  0  0  0
   -6.3405   -2.0624    0.2513 C   0  0  0  0  0  0  0  0  0  0  0  0
   -5.3149   -2.3563    1.1733 C   0  0  0  0  0  0  0  0  0  0  0  0
   -4.2114   -1.5117    1.3137 C   0  0  0  0  0  0  0  0  0  0  0  0
   -4.1040   -0.3526    0.5359 C   0  0  0  0  0  0  0  0  0  0  0  0
   -2.9975    0.4997    0.6724 C   0  0  0  0  0  0  0  0  0  0  0  0
   -2.8908    1.6644   -0.1093 C   0  0  0  0  0  0  0  0  0  0  0  0
   -1.7170    2.5632    0.0354 C   0  0  0  0  0  0  0  0  0  0  0  0
   -1.8855    3.9575    0.0345 C   0  0  0  0  0  0  0  0  0  0  0  0
   -0.7839    4.8046    0.1521 C   0  0  0  0  0  0  0  0  0  0  0  0
    0.5024    4.2755    0.2843 C   0  0  0  0  0  0  0  0  0  0  0  0
    1.5652    5.1180    0.3684 N   0  0  0  0  0  0  0  0  0  0  0  0
    2.8360    4.6587    0.4825 C   0  0  0  0  0  0  0  0  0  0  0  0
    3.0851    3.2885    0.5290 C   0  0  0  0  0  0  0  0  0  0  0  0
    2.0209    2.3760    0.4624 C   0  0  0  0  0  0  0  0  0  0  0  0
    2.3264    0.9315    0.5860 C   0  0  0  0  0  0  0  0  0  0  0  0
    1.6577    0.2166    1.3815 O   0  0  0  0  0  0  0  0  0  0  0  0
    3.4016    0.3506   -0.1654 N   0  0  0  0  0  0  0  0  0  0  0  0
    3.7015   -1.0780   -0.0829 C   0  0  0  0  0  0  0  0  0  0  0  0
    4.8604   -1.4282   -0.9755 C   0  0  0  0  0  0  0  0  0  0  0  0
    4.6217   -1.7357   -2.1749 O   0  0  0  0  0  0  0  0  0  0  0  0
    6.2265   -1.3619   -0.5182 N   0  0  0  0  0  0  0  0  0  0  0  0
    7.3503   -1.6332   -1.4013 C   0  0  0  0  0  0  0  0  0  0  0  0
    8.6009   -1.4093   -0.5583 C   0  0  0  0  0  0  0  0  0  0  0  0
    9.5596   -2.3729   -0.8232 F   0  0  0  0  0  0  0  0  0  0  0  0
    9.1261   -0.1533   -0.8159 F   0  0  0  0  0  0  0  0  0  0  0  0
    8.1332   -1.4856    0.8935 C   0  0  0  0  0  0  0  0  0  0  0  0
    6.6427   -1.1432    0.8623 C   0  0  1  0  0  0  0  0  0  0  0  0
    6.4185    0.2605    1.2443 C   0  0  0  0  0  0  0  0  0  0  0  0
    6.2447    1.3637    1.5466 N   0  0  0  0  0  0  0  0  0  0  0  0
    0.6987    2.8725    0.3179 C   0  0  0  0  0  0  0  0  0  0  0  0
   -0.4223    2.0285    0.1691 C   0  0  0  0  0  0  0  0  0  0  0  0
   -3.9098    1.9651   -1.0302 C   0  0  0  0  0  0  0  0  0  0  0  0
   -5.0140    1.1209   -1.1712 C   0  0  0  0  0  0  0  0  0  0  0  0
   -5.1210   -0.0401   -0.3925 C   0  0  0  0  0  0  0  0  0  0  0  0
   -6.2274   -0.8926   -0.5292 C   0  0  0  0  0  0  0  0  0  0  0  0
   -8.2592   -4.9399    0.1289 H   0  0  0  0  0  0  0  0  0  0  0  0
   -7.3835   -4.4313    1.6162 H   0  0  0  0  0  0  0  0  0  0  0  0
   -6.4734   -4.8068    0.0901 H   0  0  0  0  0  0  0  0  0  0  0  0
   -9.0242   -1.4836    0.0630 H   0  0  0  0  0  0  0  0  0  0  0  0
   -9.5845   -3.1538   -0.2600 H   0  0  0  0  0  0  0  0  0  0  0  0
   -8.6564   -2.2779   -1.5284 H   0  0  0  0  0  0  0  0  0  0  0  0
   -5.3645   -3.2353    1.8006 H   0  0  0  0  0  0  0  0  0  0  0  0
   -3.4419   -1.7655    2.0333 H   0  0  0  0  0  0  0  0  0  0  0  0
   -2.2275    0.2650    1.3986 H   0  0  0  0  0  0  0  0  0  0  0  0
   -2.8729    4.3937   -0.0510 H   0  0  0  0  0  0  0  0  0  0  0  0
   -0.9326    5.8774    0.1377 H   0  0  0  0  0  0  0  0  0  0  0  0
    3.6566    5.3608    0.5463 H   0  0  0  0  0  0  0  0  0  0  0  0
    4.1047    2.9442    0.6443 H   0  0  0  0  0  0  0  0  0  0  0  0
    3.9468    0.9579   -0.8195 H   0  0  0  0  0  0  0  0  0  0  0  0
    2.8079   -1.6570   -0.4025 H   0  0  0  0  0  0  0  0  0  0  0  0
    3.9158   -1.3552    0.9689 H   0  0  0  0  0  0  0  0  0  0  0  0
    7.2974   -2.6866   -1.7534 H   0  0  0  0  0  0  0  0  0  0  0  0
    7.3315   -0.9459   -2.2749 H   0  0  0  0  0  0  0  0  0  0  0  0
    8.2556   -2.5281    1.2628 H   0  0  0  0  0  0  0  0  0  0  0  0
    8.7265   -0.8130    1.5530 H   0  0  0  0  0  0  0  0  0  0  0  0
    6.0907   -1.8162    1.5527 H   0  0  0  0  0  0  0  0  0  0  0  0
   -0.2999    0.9561    0.1160 H   0  0  0  0  0  0  0  0  0  0  0  0
   -3.8440    2.8464   -1.6560 H   0  0  0  0  0  0  0  0  0  0  0  0
   -5.7825    1.3749   -1.8916 H   0  0  0  0  0  0  0  0  0  0  0  0
   -6.9915   -0.6445   -1.2542 H   0  0  0  0  0  0  0  0  0  0  0  0
  1  2  1  0
  2  3  1  0
  2  4  1  0
  4  5  2  0
  5  6  1  0
  6  7  2  0
  7  8  1  0
  8  9  2  0
  9 10  1  0
 10 11  2  0
 11 12  1  0
 12 13  2  0
 13 14  1  0
 14 15  2  0
 15 16  1  0
 16 17  2  0
 17 18  1  0
 18 19  2  0
 18 20  1  0
 20 21  1  0
 21 22  1  0
 22 23  2  0
 22 24  1  0
 24 25  1  0
 25 26  1  0
 26 27  1  0
 26 28  1  0
 26 29  1  0
 29 30  1  0
 30 31  1  0
 31 32  3  0
 17 33  1  0
 33 34  2  0
  9 35  1  0
 35 36  2  0
 36 37  1  0
 37 38  2  0
 38  4  1  0
 37  7  1  0
 34 10  1  0
 33 13  1  0
 30 24  1  0
  1 39  1  0
  1 40  1  0
  1 41  1  0
  3 42  1  0
  3 43  1  0
  3 44  1  0
  5 45  1  0
  6 46  1  0
  8 47  1  0
 11 48  1  0
 12 49  1  0
 15 50  1  0
 16 51  1  0
 20 52  1  0
 21 53  1  0
 21 54  1  0
 25 55  1  0
 25 56  1  0
 29 57  1  0
 29 58  1  0
 30 59  1  1
 34 60  1  0
 35 61  1  0
 36 62  1  0
 38 63  1  0
M  END
$$$$
