
     RDKit          3D

 54 56  0  0  0  0  0  0  0  0999 V2000
    0.3691   -4.4421   -0.6963 C   0  0  0  0  0  0  0  0  0  0  0  0
   -0.7480   -4.2135    0.2282 N   0  0  0  0  0  0  0  0  0  0  0  0
   -1.0285   -5.1897    1.2868 C   0  0  0  0  0  0  0  0  0  0  0  0
   -1.5857   -3.0382    0.1235 C   0  0  0  0  0  0  0  0  0  0  0  0
   -2.5409   -2.8947    0.9348 O   0  0  0  0  0  0  0  0  0  0  0  0
   -1.3076   -1.9462   -0.9024 C   0  0  2  0  0  0  0  0  0  0  0  0
   -0.1185   -1.0939   -0.4906 C   0  0  0  0  0  0  0  0  0  0  0  0
    0.8309   -0.7098   -1.4522 C   0  0  0  0  0  0  0  0  0  0  0  0
    1.8746    0.1554   -1.1144 C   0  0  0  0  0  0  0  0  0  0  0  0
    1.9927    0.6554    0.1936 C   0  0  0  0  0  0  0  0  0  0  0  0
    3.0777    1.6055    0.5433 C   0  0  0  0  0  0  0  0  0  0  0  0
    3.4289    2.6444   -0.3392 C   0  0  0  0  0  0  0  0  0  0  0  0
    4.4464    3.5433   -0.0052 C   0  0  0  0  0  0  0  0  0  0  0  0
    5.1237    3.4158    1.2100 C   0  0  0  0  0  0  0  0  0  0  0  0
    6.1102    4.2886    1.5314 F   0  0  0  0  0  0  0  0  0  0  0  0
    4.7833    2.3892    2.0943 C   0  0  0  0  0  0  0  0  0  0  0  0
    3.7656    1.4885    1.7657 C   0  0  0  0  0  0  0  0  0  0  0  0
    1.0560    0.2558    1.1613 C   0  0  0  0  0  0  0  0  0  0  0  0
    0.0132   -0.6094    0.8240 C   0  0  0  0  0  0  0  0  0  0  0  0
   -2.5450   -1.0700   -1.2807 C   0  0  1  0  0  0  0  0  0  0  0  0
   -3.6879   -1.9211   -1.6251 N   0  0  0  0  0  0  0  0  0  0  0  0
   -2.9398   -0.0859   -0.1918 C   0  0  0  0  0  0  0  0  0  0  0  0
   -3.7278   -0.4609    0.7190 O   0  0  0  0  0  0  0  0  0  0  0  0
   -2.4036    1.2513   -0.1451 N   0  0  0  0  0  0  0  0  0  0  0  0
   -2.4855    2.0814    1.0454 C   0  0  0  0  0  0  0  0  0  0  0  0
   -1.9539    3.4490    0.6365 C   0  0  0  0  0  0  0  0  0  0  0  0
   -1.2106    3.2286   -0.6780 C   0  0  2  0  0  0  0  0  0  0  0  0
   -1.4031    4.2915   -1.5443 F   0  0  0  0  0  0  0  0  0  0  0  0
   -1.7712    1.9384   -1.2603 C   0  0  0  0  0  0  0  0  0  0  0  0
    0.9239   -5.3713   -0.4496 H   0  0  0  0  0  0  0  0  0  0  0  0
   -0.0127   -4.5445   -1.7333 H   0  0  0  0  0  0  0  0  0  0  0  0
    1.0881   -3.5994   -0.6405 H   0  0  0  0  0  0  0  0  0  0  0  0
   -0.3214   -6.0450    1.2613 H   0  0  0  0  0  0  0  0  0  0  0  0
   -0.9425   -4.6995    2.2797 H   0  0  0  0  0  0  0  0  0  0  0  0
   -2.0573   -5.5895    1.1643 H   0  0  0  0  0  0  0  0  0  0  0  0
   -1.0385   -2.4722   -1.8433 H   0  0  0  0  0  0  0  0  0  0  0  0
    0.7502   -1.0610   -2.4734 H   0  0  0  0  0  0  0  0  0  0  0  0
    2.5906    0.4335   -1.8775 H   0  0  0  0  0  0  0  0  0  0  0  0
    2.9042    2.7727   -1.2777 H   0  0  0  0  0  0  0  0  0  0  0  0
    4.7065    4.3414   -0.6886 H   0  0  0  0  0  0  0  0  0  0  0  0
    5.3096    2.2885    3.0348 H   0  0  0  0  0  0  0  0  0  0  0  0
    3.5275    0.6915    2.4590 H   0  0  0  0  0  0  0  0  0  0  0  0
    1.1095    0.6394    2.1724 H   0  0  0  0  0  0  0  0  0  0  0  0
   -0.7107   -0.8742    1.5838 H   0  0  0  0  0  0  0  0  0  0  0  0
   -2.2768   -0.4944   -2.1937 H   0  0  0  0  0  0  0  0  0  0  0  0
   -3.4184   -2.5283   -2.4334 H   0  0  0  0  0  0  0  0  0  0  0  0
   -4.4630   -1.3088   -1.9709 H   0  0  0  0  0  0  0  0  0  0  0  0
   -1.8552    1.6427    1.8489 H   0  0  0  0  0  0  0  0  0  0  0  0
   -3.5384    2.1617    1.3932 H   0  0  0  0  0  0  0  0  0  0  0  0
   -1.2801    3.8698    1.4142 H   0  0  0  0  0  0  0  0  0  0  0  0
   -2.8064    4.1456    0.4763 H   0  0  0  0  0  0  0  0  0  0  0  0
   -0.1232    3.1072   -0.4747 H   0  0  0  0  0  0  0  0  0  0  0  0
   -2.5322    2.1506   -2.0422 H   0  0  0  0  0  0  0  0  0  0  0  0
   -0.9480    1.3367   -1.6917 H   0  0  0  0  0  0  0  0  0  0  0  0
  1  2  1  0
  2  3  1  0
  2  4  1  0
  4  5  2  0
  4  6  1  0
  6  7  1  0
  7  8  2  0
  8  9  1  0
  9 10  2  0
 10 11  1  0
 11 12  2  0
 12 13  1  0
 13 14  2  0
 14 15  1  0
 14 16  1  0
 16 17  2  0
 10 18  1  0
 18 19  2  0
  6 20  1  0
 20 21  1  0
 20 22  1  0
 22 23  2  0
 22 24  1  0
 24 25  1  0
 25 26  1  0
 26 27  1  0
 27 28  1  0
 27 29  1  0
 19  7  1  0
 29 24  1  0
 17 11  1  0
  1 30  1  0
  1 31  1  0
  1 32  1  0
  3 33  1  0
  3 34  1  0
  3 35  1  0
  6 36  1  6
  8 37  1  0
  9 38  1  0
 12 39  1  0
 13 40  1  0
 16 41  1  0
 17 42  1  0
 18 43  1  0
 19 44  1  0
 20 45  1  6
 21 46  1  0
 21 47  1  0
 25 48  1  0
 25 49  1  0
 26 50  1  0
 26 51  1  0
 27 52  1  1
 29 53  1  0
 29 54  1  0
M  END
$$$$
