
     RDKit          3D

 32 34  0  0  0  0  0  0  0  0999 V2000
   -2.6696    1.6586   -1.7283 C   0  0  0  0  0  0  0  0  0  0  0  0
   -1.9161    2.3432   -0.2203 S   0  0  0  0  0  0  0  0  0  0  0  0
   -2.3542    0.9204    0.7891 C   0  0  0  0  0  0  0  0  0  0  0  0
   -3.5745    0.9298    1.4777 C   0  0  0  0  0  0  0  0  0  0  0  0
   -3.9673   -0.1790    2.2312 C   0  0  0  0  0  0  0  0  0  0  0  0
   -3.1452   -1.3057    2.2983 C   0  0  0  0  0  0  0  0  0  0  0  0
   -1.9253   -1.3235    1.6175 C   0  0  0  0  0  0  0  0  0  0  0  0
   -1.5146   -0.2100    0.8678 C   0  0  0  0  0  0  0  0  0  0  0  0
   -0.2568   -0.2421    0.1791 N   0  0  0  0  0  0  0  0  0  0  0  0
    0.2327   -1.2923   -0.6529 C   0  0  0  0  0  0  0  0  0  0  0  0
   -0.4775   -2.2302   -1.1034 O   0  0  0  0  0  0  0  0  0  0  0  0
    1.6540   -1.1046   -0.9088 C   0  0  0  0  0  0  0  0  0  0  0  0
    2.5155   -1.8373   -1.7202 C   0  0  0  0  0  0  0  0  0  0  0  0
    3.8460   -1.4084   -1.8287 C   0  0  0  0  0  0  0  0  0  0  0  0
    4.2902   -0.2702   -1.1271 C   0  0  0  0  0  0  0  0  0  0  0  0
    3.4118    0.4583   -0.2945 C   0  0  0  0  0  0  0  0  0  0  0  0
    3.8930    1.5980    0.4352 N   0  0  0  0  0  0  0  0  0  0  0  0
    3.4695    1.8411    1.5830 O   0  0  0  0  0  0  0  0  0  0  0  0
    4.9737    2.3078   -0.0354 O   0  0  0  0  0  0  0  0  0  0  0  0
    2.0761    0.0166   -0.2153 C   0  0  0  0  0  0  0  0  0  0  0  0
    0.8929    0.5577    0.4689 C   0  0  0  0  0  0  0  0  0  0  0  0
    0.8661    1.5726    1.2134 O   0  0  0  0  0  0  0  0  0  0  0  0
   -3.7540    1.4844   -1.5675 H   0  0  0  0  0  0  0  0  0  0  0  0
   -2.5404    2.3825   -2.5587 H   0  0  0  0  0  0  0  0  0  0  0  0
   -2.1732    0.7043   -2.0028 H   0  0  0  0  0  0  0  0  0  0  0  0
   -4.2251    1.7932    1.4204 H   0  0  0  0  0  0  0  0  0  0  0  0
   -4.9124   -0.1671    2.7587 H   0  0  0  0  0  0  0  0  0  0  0  0
   -3.4526   -2.1653    2.8798 H   0  0  0  0  0  0  0  0  0  0  0  0
   -1.2924   -2.1995    1.6837 H   0  0  0  0  0  0  0  0  0  0  0  0
    2.1670   -2.7069   -2.2621 H   0  0  0  0  0  0  0  0  0  0  0  0
    4.5368   -1.9567   -2.4560 H   0  0  0  0  0  0  0  0  0  0  0  0
    5.3258    0.0302   -1.2218 H   0  0  0  0  0  0  0  0  0  0  0  0
  1  2  1  0
  2  3  1  0
  3  4  2  0
  4  5  1  0
  5  6  2  0
  6  7  1  0
  7  8  2  0
  8  9  1  0
  9 10  1  0
 10 11  2  0
 10 12  1  0
 12 13  2  0
 13 14  1  0
 14 15  2  0
 15 16  1  0
 16 17  1  0
 17 18  2  0
 17 19  1  0
 16 20  2  0
 20 21  1  0
 21 22  2  0
  8  3  1  0
 21  9  1  0
 20 12  1  0
  1 23  1  0
  1 24  1  0
  1 25  1  0
  4 26  1  0
  5 27  1  0
  6 28  1  0
  7 29  1  0
 13 30  1  0
 14 31  1  0
 15 32  1  0
M  CHG  2  17   1  19  -1
M  END
$$$$
