
     RDKit          3D

 60 61  0  0  0  0  0  0  0  0999 V2000
    0.3864    3.0272   -0.1946 C   0  0  0  0  0  0  0  0  0  0  0  0
    1.5129    2.4578    0.5482 N   0  0  0  0  0  0  0  0  0  0  0  0
    2.5895    3.3308    1.0221 C   0  0  0  0  0  0  0  0  0  0  0  0
    1.4890    1.0912    1.0050 C   0  0  0  0  0  0  0  0  0  0  0  0
    1.8452    0.8384    2.1886 O   0  0  0  0  0  0  0  0  0  0  0  0
    1.0885   -0.0713    0.1134 C   0  0  1  0  0  0  0  0  0  0  0  0
   -0.4296   -0.1996    0.0566 C   0  0  0  0  0  0  0  0  0  0  0  0
   -1.2037    0.2772   -1.0206 C   0  0  0  0  0  0  0  0  0  0  0  0
   -2.5965    0.1663   -1.0021 C   0  0  0  0  0  0  0  0  0  0  0  0
   -3.2542   -0.4162    0.0937 C   0  0  0  0  0  0  0  0  0  0  0  0
   -4.7350   -0.5316    0.1127 C   0  0  0  0  0  0  0  0  0  0  0  0
   -5.5413    0.5202   -0.3626 C   0  0  0  0  0  0  0  0  0  0  0  0
   -6.9350    0.4090   -0.3429 C   0  0  0  0  0  0  0  0  0  0  0  0
   -7.5392   -0.7503    0.1493 C   0  0  0  0  0  0  0  0  0  0  0  0
   -8.8907   -0.8558    0.1670 F   0  0  0  0  0  0  0  0  0  0  0  0
   -6.7499   -1.8009    0.6235 C   0  0  0  0  0  0  0  0  0  0  0  0
   -5.3558   -1.6946    0.6069 C   0  0  0  0  0  0  0  0  0  0  0  0
   -2.4872   -0.8837    1.1730 C   0  0  0  0  0  0  0  0  0  0  0  0
   -1.0950   -0.7720    1.1556 C   0  0  0  0  0  0  0  0  0  0  0  0
    1.8236   -0.0688   -1.2644 C   0  0  2  0  0  0  0  0  0  0  0  0
    1.5617   -1.2990   -2.0196 N   0  0  0  0  0  0  0  0  0  0  0  0
    3.3162    0.0910   -1.0988 C   0  0  0  0  0  0  0  0  0  0  0  0
    3.8753    1.1558   -1.4758 O   0  0  0  0  0  0  0  0  0  0  0  0
    4.1094   -0.9455   -0.5110 N   0  0  0  0  0  0  0  0  0  0  0  0
    4.4779   -0.9070    0.8949 C   0  0  0  0  0  0  0  0  0  0  0  0
    5.7382   -1.7393    1.0676 C   0  0  0  0  0  0  0  0  0  0  0  0
    5.7724   -2.9920   -0.2467 S   0  0  0  0  0  0  0  0  0  0  0  0
    4.8277   -1.8965   -1.3422 C   0  0  0  0  0  0  0  0  0  0  0  0
    0.8398    0.0537   -1.5001 O   0  0  0  0  0  0  0  0  0  0  0  0
    0.4880    0.0109   -0.2908 C   0  0  0  0  0  0  0  0  0  0  0  0
    1.4487   -0.1317    0.7060 O   0  0  0  0  0  0  0  0  0  0  0  0
   -0.9619    0.0533    0.0682 C   0  0  0  0  0  0  0  0  0  0  0  0
   -1.5015   -1.2132   -0.0532 F   0  0  0  0  0  0  0  0  0  0  0  0
   -1.6331    0.9184   -0.7769 F   0  0  0  0  0  0  0  0  0  0  0  0
   -1.1137    0.4896    1.3717 F   0  0  0  0  0  0  0  0  0  0  0  0
    0.4157    4.1371   -0.1832 H   0  0  0  0  0  0  0  0  0  0  0  0
    0.4196    2.7020   -1.2512 H   0  0  0  0  0  0  0  0  0  0  0  0
   -0.5719    2.7178    0.2728 H   0  0  0  0  0  0  0  0  0  0  0  0
    2.5672    4.3172    0.5124 H   0  0  0  0  0  0  0  0  0  0  0  0
    2.4905    3.4913    2.1163 H   0  0  0  0  0  0  0  0  0  0  0  0
    3.5732    2.8607    0.8104 H   0  0  0  0  0  0  0  0  0  0  0  0
    1.4482   -0.9922    0.6259 H   0  0  0  0  0  0  0  0  0  0  0  0
   -0.7472    0.7339   -1.8851 H   0  0  0  0  0  0  0  0  0  0  0  0
   -3.1591    0.5242   -1.8553 H   0  0  0  0  0  0  0  0  0  0  0  0
   -5.0952    1.4348   -0.7325 H   0  0  0  0  0  0  0  0  0  0  0  0
   -7.5461    1.2249   -0.7068 H   0  0  0  0  0  0  0  0  0  0  0  0
   -7.2175   -2.7010    1.0016 H   0  0  0  0  0  0  0  0  0  0  0  0
   -4.7637   -2.5279    0.9637 H   0  0  0  0  0  0  0  0  0  0  0  0
   -2.9652   -1.3171    2.0426 H   0  0  0  0  0  0  0  0  0  0  0  0
   -0.5318   -1.1288    2.0094 H   0  0  0  0  0  0  0  0  0  0  0  0
    1.4767    0.7893   -1.8744 H   0  0  0  0  0  0  0  0  0  0  0  0
    1.6783   -2.1314   -1.3968 H   0  0  0  0  0  0  0  0  0  0  0  0
    0.5735   -1.2989   -2.3579 H   0  0  0  0  0  0  0  0  0  0  0  0
    4.6682    0.1388    1.2220 H   0  0  0  0  0  0  0  0  0  0  0  0
    3.6546   -1.3370    1.5029 H   0  0  0  0  0  0  0  0  0  0  0  0
    6.6347   -1.0919    0.9599 H   0  0  0  0  0  0  0  0  0  0  0  0
    5.7577   -2.2267    2.0652 H   0  0  0  0  0  0  0  0  0  0  0  0
    5.5236   -1.3577   -2.0196 H   0  0  0  0  0  0  0  0  0  0  0  0
    4.1155   -2.5024   -1.9391 H   0  0  0  0  0  0  0  0  0  0  0  0
    2.4338   -0.1810    0.4750 H   0  0  0  0  0  0  0  0  0  0  0  0
  1  2  1  0
  2  3  1  0
  2  4  1  0
  4  5  2  0
  4  6  1  0
  6  7  1  0
  7  8  2  0
  8  9  1  0
  9 10  2  0
 10 11  1  0
 11 12  2  0
 12 13  1  0
 13 14  2  0
 14 15  1  0
 14 16  1  0
 16 17  2  0
 10 18  1  0
 18 19  2  0
  6 20  1  0
 20 21  1  0
 20 22  1  0
 22 23  2  0
 22 24  1  0
 24 25  1  0
 25 26  1  0
 26 27  1  0
 27 28  1  0
 29 30  2  0
 30 31  1  0
 30 32  1  0
 32 33  1  0
 32 34  1  0
 32 35  1  0
 19  7  1  0
 28 24  1  0
 17 11  1  0
  1 36  1  0
  1 37  1  0
  1 38  1  0
  3 39  1  0
  3 40  1  0
  3 41  1  0
  6 42  1  1
  8 43  1  0
  9 44  1  0
 12 45  1  0
 13 46  1  0
 16 47  1  0
 17 48  1  0
 18 49  1  0
 19 50  1  0
 20 51  1  6
 21 52  1  0
 21 53  1  0
 25 54  1  0
 25 55  1  0
 26 56  1  0
 26 57  1  0
 28 58  1  0
 28 59  1  0
 31 60  1  0
M  END
$$$$
