
     RDKit          3D

 30 30  0  0  0  0  0  0  0  0999 V2000
   -3.8456   -0.7832   -0.6711 C   0  0  0  0  0  0  0  0  0  0  0  0
   -2.7594   -0.4507    0.3507 C   0  0  0  0  0  0  0  0  0  0  0  0
   -1.7804    0.6151   -0.1753 C   0  0  0  0  0  0  0  0  0  0  0  0
   -2.4759    1.8879   -0.3910 N   0  0  0  0  0  0  0  0  0  0  0  0
   -0.6292    0.7898    0.7968 C   0  0  0  0  0  0  0  0  0  0  0  0
   -0.8445    1.3873    1.8877 O   0  0  0  0  0  0  0  0  0  0  0  0
    0.6913    0.2724    0.5193 N   0  0  0  0  0  0  0  0  0  0  0  0
    0.8882   -0.8147   -0.4558 C   0  0  0  0  0  0  0  0  0  0  0  0
    2.2082   -1.5535   -0.2092 C   0  0  0  0  0  0  0  0  0  0  0  0
    3.4105   -0.5954   -0.1949 C   0  0  0  0  0  0  0  0  0  0  0  0
    3.1004    0.7800    0.4297 C   0  0  0  0  0  0  0  0  0  0  0  0
    1.8387    0.7645    1.2982 C   0  0  0  0  0  0  0  0  0  0  0  0
   -4.5093   -1.5741   -0.2624 H   0  0  0  0  0  0  0  0  0  0  0  0
   -4.4618    0.1140   -0.8914 H   0  0  0  0  0  0  0  0  0  0  0  0
   -3.3889   -1.1561   -1.6126 H   0  0  0  0  0  0  0  0  0  0  0  0
   -3.2394   -0.0974    1.2897 H   0  0  0  0  0  0  0  0  0  0  0  0
   -2.2036   -1.3848    0.5843 H   0  0  0  0  0  0  0  0  0  0  0  0
   -1.3907    0.2788   -1.1590 H   0  0  0  0  0  0  0  0  0  0  0  0
   -1.7886    2.5889   -0.7530 H   0  0  0  0  0  0  0  0  0  0  0  0
   -2.8464    2.2495    0.5183 H   0  0  0  0  0  0  0  0  0  0  0  0
    0.0648   -1.5556   -0.3706 H   0  0  0  0  0  0  0  0  0  0  0  0
    0.8850   -0.3936   -1.4843 H   0  0  0  0  0  0  0  0  0  0  0  0
    2.3564   -2.3267   -0.9938 H   0  0  0  0  0  0  0  0  0  0  0  0
    2.1465   -2.0764    0.7707 H   0  0  0  0  0  0  0  0  0  0  0  0
    3.7676   -0.4437   -1.2371 H   0  0  0  0  0  0  0  0  0  0  0  0
    4.2393   -1.0783    0.3675 H   0  0  0  0  0  0  0  0  0  0  0  0
    2.9540    1.5235   -0.3846 H   0  0  0  0  0  0  0  0  0  0  0  0
    3.9659    1.1192    1.0392 H   0  0  0  0  0  0  0  0  0  0  0  0
    1.6537    1.8012    1.6554 H   0  0  0  0  0  0  0  0  0  0  0  0
    1.9933    0.1121    2.1847 H   0  0  0  0  0  0  0  0  0  0  0  0
  1  2  1  0
  2  3  1  0
  3  4  1  0
  3  5  1  0
  5  6  2  0
  5  7  1  0
  7  8  1  0
  8  9  1  0
  9 10  1  0
 10 11  1  0
 11 12  1  0
 12  7  1  0
  1 13  1  0
  1 14  1  0
  1 15  1  0
  2 16  1  0
  2 17  1  0
  3 18  1  0
  4 19  1  0
  4 20  1  0
  8 21  1  0
  8 22  1  0
  9 23  1  0
  9 24  1  0
 10 25  1  0
 10 26  1  0
 11 27  1  0
 11 28  1  0
 12 29  1  0
 12 30  1  0
M  END
$$$$
