
     RDKit          3D

 56 56  0  0  0  0  0  0  0  0999 V2000
   -4.3053   -3.9343    2.4749 C   0  0  0  0  0  0  0  0  0  0  0  0
   -4.7887   -3.1111    1.3226 C   0  0  0  0  0  0  0  0  0  0  0  0
   -5.9965   -3.1888    0.9698 O   0  0  0  0  0  0  0  0  0  0  0  0
   -3.8663   -2.2149    0.6028 C   0  0  0  0  0  0  0  0  0  0  0  0
   -4.2548   -1.4286   -0.4804 C   0  0  0  0  0  0  0  0  0  0  0  0
   -2.9034   -0.5810   -1.0066 S   0  0  0  0  0  0  0  0  0  0  0  0
   -1.8854   -1.2252    0.1721 C   0  0  0  0  0  0  0  0  0  0  0  0
   -0.4291   -0.9769    0.3020 C   0  0  0  0  0  0  0  0  0  0  0  0
    0.3943   -2.0601    0.6142 C   0  0  0  0  0  0  0  0  0  0  0  0
    1.7351   -1.9045    0.6923 N   0  0  0  0  0  0  0  0  0  0  0  0
    2.3563   -0.7120    0.5037 C   0  0  0  0  0  0  0  0  0  0  0  0
    3.8734   -0.7048    0.5883 C   0  0  0  0  0  0  0  0  0  0  0  0
    4.5780   -1.4584   -0.5680 C   0  0  0  0  0  0  0  0  0  0  0  0
    4.2621   -0.8479   -1.9389 C   0  0  0  0  0  0  0  0  0  0  0  0
    4.2913   -2.9672   -0.5650 C   0  0  0  0  0  0  0  0  0  0  0  0
    1.5703    0.4521    0.2737 C   0  0  0  0  0  0  0  0  0  0  0  0
    2.2109    1.8319    0.2319 C   0  0  0  0  0  0  0  0  0  0  0  0
    2.9351    2.0227   -1.0192 N   0  0  0  0  0  0  0  0  0  0  0  0
    0.1602    0.3011    0.1369 C   0  0  0  0  0  0  0  0  0  0  0  0
   -0.7015    1.4817   -0.1014 C   0  0  0  0  0  0  0  0  0  0  0  0
   -1.4934    1.9960    0.9358 C   0  0  0  0  0  0  0  0  0  0  0  0
   -2.3128    3.1056    0.7107 C   0  0  0  0  0  0  0  0  0  0  0  0
   -2.3390    3.7218   -0.5499 C   0  0  0  0  0  0  0  0  0  0  0  0
   -3.2500    4.8861   -0.8027 C   0  0  0  0  0  0  0  0  0  0  0  0
   -1.5593    3.1955   -1.5914 C   0  0  0  0  0  0  0  0  0  0  0  0
   -0.7405    2.0853   -1.3671 C   0  0  0  0  0  0  0  0  0  0  0  0
   -2.5543   -2.1049    0.9509 N   0  0  0  0  0  0  0  0  0  0  0  0
    0.6878    0.0000    0.0000 Cl  0  0  0  0  0  0  0  0  0  0  0  0
    0.6878    0.0000    0.0000 Cl  0  0  0  0  0  0  0  0  0  0  0  0
   -3.9183   -3.2682    3.2743 H   0  0  0  0  0  0  0  0  0  0  0  0
   -3.4933   -4.6115    2.1365 H   0  0  0  0  0  0  0  0  0  0  0  0
   -5.1324   -4.5483    2.8906 H   0  0  0  0  0  0  0  0  0  0  0  0
   -5.2441   -1.3770   -0.9154 H   0  0  0  0  0  0  0  0  0  0  0  0
   -0.0254   -3.0471    0.7631 H   0  0  0  0  0  0  0  0  0  0  0  0
    4.2916    0.3184    0.6262 H   0  0  0  0  0  0  0  0  0  0  0  0
    4.1658   -1.1753    1.5521 H   0  0  0  0  0  0  0  0  0  0  0  0
    5.6728   -1.3426   -0.4039 H   0  0  0  0  0  0  0  0  0  0  0  0
    3.1721   -0.8848   -2.1499 H   0  0  0  0  0  0  0  0  0  0  0  0
    4.7966   -1.4050   -2.7378 H   0  0  0  0  0  0  0  0  0  0  0  0
    4.6077    0.2057   -1.9741 H   0  0  0  0  0  0  0  0  0  0  0  0
    5.0040   -3.4856   -1.2415 H   0  0  0  0  0  0  0  0  0  0  0  0
    3.2636   -3.1830   -0.9242 H   0  0  0  0  0  0  0  0  0  0  0  0
    4.4200   -3.3861    0.4556 H   0  0  0  0  0  0  0  0  0  0  0  0
    2.9028    1.9502    1.0922 H   0  0  0  0  0  0  0  0  0  0  0  0
    1.4728    2.6512    0.3591 H   0  0  0  0  0  0  0  0  0  0  0  0
    2.2394    2.0825   -1.7970 H   0  0  0  0  0  0  0  0  0  0  0  0
    3.4137    2.9512   -0.9739 H   0  0  0  0  0  0  0  0  0  0  0  0
   -1.4788    1.5333    1.9151 H   0  0  0  0  0  0  0  0  0  0  0  0
   -2.9267    3.4838    1.5188 H   0  0  0  0  0  0  0  0  0  0  0  0
   -2.8267    5.5523   -1.5844 H   0  0  0  0  0  0  0  0  0  0  0  0
   -3.3853    5.4857    0.1226 H   0  0  0  0  0  0  0  0  0  0  0  0
   -4.2394    4.5136   -1.1410 H   0  0  0  0  0  0  0  0  0  0  0  0
   -1.5880    3.6422   -2.5776 H   0  0  0  0  0  0  0  0  0  0  0  0
   -0.1512    1.6847   -2.1821 H   0  0  0  0  0  0  0  0  0  0  0  0
   -0.6878    0.0000    0.0000 H   0  0  0  0  0  0  0  0  0  0  0  0
   -0.6878    0.0000    0.0000 H   0  0  0  0  0  0  0  0  0  0  0  0
  1  2  1  0
  2  3  2  0
  2  4  1  0
  4  5  2  0
  5  6  1  0
  6  7  1  0
  7  8  1  0
  8  9  2  0
  9 10  1  0
 10 11  2  0
 11 12  1  0
 12 13  1  0
 13 14  1  0
 13 15  1  0
 11 16  1  0
 16 17  1  0
 17 18  1  0
 16 19  2  0
 19 20  1  0
 20 21  2  0
 21 22  1  0
 22 23  2  0
 23 24  1  0
 23 25  1  0
 25 26  2  0
  7 27  2  0
 27  4  1  0
 19  8  1  0
 26 20  1  0
  1 30  1  0
  1 31  1  0
  1 32  1  0
  5 33  1  0
  9 34  1  0
 12 35  1  0
 12 36  1  0
 13 37  1  0
 14 38  1  0
 14 39  1  0
 14 40  1  0
 15 41  1  0
 15 42  1  0
 15 43  1  0
 17 44  1  0
 17 45  1  0
 18 46  1  0
 18 47  1  0
 21 48  1  0
 22 49  1  0
 24 50  1  0
 24 51  1  0
 24 52  1  0
 25 53  1  0
 26 54  1  0
 28 55  1  0
 29 56  1  0
M  END
$$$$
