
     RDKit          3D

 50 53  0  0  0  0  0  0  0  0999 V2000
   -5.7310   -0.5268    1.2424 N   0  0  0  0  0  0  0  0  0  0  0  0
   -4.9282    0.2704    0.9991 C   0  0  0  0  0  0  0  0  0  0  0  0
   -3.9059    1.2842    0.6897 C   0  0  2  0  0  0  0  0  0  0  0  0
   -4.5511    2.6454    0.4284 C   0  0  0  0  0  0  0  0  0  0  0  0
   -4.6177    2.7843   -1.0888 C   0  0  0  0  0  0  0  0  0  0  0  0
   -3.5401    1.8563   -1.6327 C   0  0  0  0  0  0  0  0  0  0  0  0
   -3.2208    0.9390   -0.5496 N   0  0  0  0  0  0  0  0  0  0  0  0
   -2.2507   -0.1176   -0.7062 C   0  0  0  0  0  0  0  0  0  0  0  0
   -1.6867   -0.2704   -1.8252 O   0  0  0  0  0  0  0  0  0  0  0  0
   -1.8798   -1.0529    0.4355 C   0  0  2  0  0  0  0  0  0  0  0  0
   -0.3876   -0.9789    0.7230 C   0  0  0  0  0  0  0  0  0  0  0  0
    0.2653   -1.9466   -0.1726 N   0  0  0  0  0  0  0  0  0  0  0  0
    1.4934   -2.5185    0.4120 C   0  0  0  0  0  0  0  0  0  0  0  0
    2.5707   -1.4697    0.5032 C   0  0  0  0  0  0  0  0  0  0  0  0
    2.9129   -0.9036    1.7395 C   0  0  0  0  0  0  0  0  0  0  0  0
    3.8900    0.0932    1.8150 C   0  0  0  0  0  0  0  0  0  0  0  0
    4.5393    0.5492    0.6510 C   0  0  0  0  0  0  0  0  0  0  0  0
    5.5506    1.5775    0.7076 N   0  0  0  0  0  0  0  0  0  0  0  0
    5.9275    2.3202    1.7677 C   0  0  0  0  0  0  0  0  0  0  0  0
    6.9030    3.1881    1.4370 N   0  0  0  0  0  0  0  0  0  0  0  0
    7.0924    2.9294    0.1262 C   0  0  0  0  0  0  0  0  0  0  0  0
    6.2791    1.9578   -0.3277 N   0  0  0  0  0  0  0  0  0  0  0  0
    4.1863   -0.0206   -0.5860 C   0  0  0  0  0  0  0  0  0  0  0  0
    3.2088   -1.0165   -0.6592 C   0  0  0  0  0  0  0  0  0  0  0  0
   -0.7355   -2.9830   -0.4843 C   0  0  0  0  0  0  0  0  0  0  0  0
   -2.0787   -2.5300    0.0940 C   0  0  2  0  0  0  0  0  0  0  0  0
   -3.1811   -2.7573   -0.8433 N   0  0  0  0  0  0  0  0  0  0  0  0
   -3.1835    1.3676    1.5302 H   0  0  0  0  0  0  0  0  0  0  0  0
   -5.5580    2.7524    0.8907 H   0  0  0  0  0  0  0  0  0  0  0  0
   -3.8929    3.4450    0.8350 H   0  0  0  0  0  0  0  0  0  0  0  0
   -4.4489    3.8357   -1.4082 H   0  0  0  0  0  0  0  0  0  0  0  0
   -5.6156    2.4477   -1.4468 H   0  0  0  0  0  0  0  0  0  0  0  0
   -3.9157    1.2967   -2.5168 H   0  0  0  0  0  0  0  0  0  0  0  0
   -2.6331    2.4368   -1.9093 H   0  0  0  0  0  0  0  0  0  0  0  0
   -2.4452   -0.8102    1.3574 H   0  0  0  0  0  0  0  0  0  0  0  0
    0.0177    0.0420    0.5473 H   0  0  0  0  0  0  0  0  0  0  0  0
   -0.2201   -1.2394    1.7942 H   0  0  0  0  0  0  0  0  0  0  0  0
    1.2877   -2.9710    1.4092 H   0  0  0  0  0  0  0  0  0  0  0  0
    1.8696   -3.3377   -0.2408 H   0  0  0  0  0  0  0  0  0  0  0  0
    2.4217   -1.2321    2.6471 H   0  0  0  0  0  0  0  0  0  0  0  0
    4.1330    0.4962    2.7871 H   0  0  0  0  0  0  0  0  0  0  0  0
    5.5074    2.2529    2.7611 H   0  0  0  0  0  0  0  0  0  0  0  0
    7.8152    3.4458   -0.4908 H   0  0  0  0  0  0  0  0  0  0  0  0
    4.6624    0.3097   -1.5001 H   0  0  0  0  0  0  0  0  0  0  0  0
    2.9460   -1.4331   -1.6239 H   0  0  0  0  0  0  0  0  0  0  0  0
   -0.7985   -3.0839   -1.5895 H   0  0  0  0  0  0  0  0  0  0  0  0
   -0.4702   -3.9810   -0.0649 H   0  0  0  0  0  0  0  0  0  0  0  0
   -2.2714   -3.0931    1.0376 H   0  0  0  0  0  0  0  0  0  0  0  0
   -3.2639   -3.7879   -1.0013 H   0  0  0  0  0  0  0  0  0  0  0  0
   -4.0683   -2.4614   -0.3753 H   0  0  0  0  0  0  0  0  0  0  0  0
  1  2  3  0
  2  3  1  0
  3  4  1  0
  4  5  1  0
  5  6  1  0
  6  7  1  0
  7  8  1  0
  8  9  2  0
  8 10  1  0
 10 11  1  0
 11 12  1  0
 12 13  1  0
 13 14  1  0
 14 15  2  0
 15 16  1  0
 16 17  2  0
 17 18  1  0
 18 19  1  0
 19 20  2  0
 20 21  1  0
 21 22  2  0
 17 23  1  0
 23 24  2  0
 12 25  1  0
 25 26  1  0
 26 27  1  0
  7  3  1  0
 26 10  1  0
 24 14  1  0
 22 18  1  0
  3 28  1  1
  4 29  1  0
  4 30  1  0
  5 31  1  0
  5 32  1  0
  6 33  1  0
  6 34  1  0
 10 35  1  1
 11 36  1  0
 11 37  1  0
 13 38  1  0
 13 39  1  0
 15 40  1  0
 16 41  1  0
 19 42  1  0
 21 43  1  0
 23 44  1  0
 24 45  1  0
 25 46  1  0
 25 47  1  0
 26 48  1  1
 27 49  1  0
 27 50  1  0
M  END
$$$$
