
     RDKit          3D

 43 45  0  0  0  0  0  0  0  0999 V2000
   -2.5230   -1.8866   -0.8917 N   0  0  0  0  0  0  0  0  0  0  0  0
   -1.8161   -1.7608    0.3880 C   0  0  1  0  0  0  0  0  0  0  0  0
   -0.5099   -2.5913    0.4117 C   0  0  0  0  0  0  0  0  0  0  0  0
    0.4519   -2.2275   -0.6956 C   0  0  0  0  0  0  0  0  0  0  0  0
    0.3436   -2.8216   -1.8030 O   0  0  0  0  0  0  0  0  0  0  0  0
    1.4310   -1.1788   -0.5497 N   0  0  0  0  0  0  0  0  0  0  0  0
    2.0499   -0.9187    0.7687 C   0  0  0  0  0  0  0  0  0  0  0  0
    3.4621   -0.3341    0.6386 C   0  0  0  0  0  0  0  0  0  0  0  0
    3.4530    0.7330   -0.3495 N   0  0  0  0  0  0  0  0  0  0  0  0
    2.6647    0.7636   -1.4266 C   0  0  0  0  0  0  0  0  0  0  0  0
    2.9699    1.7939   -2.2380 N   0  0  0  0  0  0  0  0  0  0  0  0
    3.9829    2.4368   -1.6693 N   0  0  0  0  0  0  0  0  0  0  0  0
    4.2809    1.7789   -0.5288 C   0  0  0  0  0  0  0  0  0  0  0  0
    5.3933    2.1646    0.3971 C   0  0  0  0  0  0  0  0  0  0  0  0
    4.8697    2.5253    1.6244 F   0  0  0  0  0  0  0  0  0  0  0  0
    6.0989    3.2342   -0.1239 F   0  0  0  0  0  0  0  0  0  0  0  0
    6.2540    1.0955    0.5618 F   0  0  0  0  0  0  0  0  0  0  0  0
    1.6457   -0.2907   -1.7118 C   0  0  0  0  0  0  0  0  0  0  0  0
   -1.5669   -0.2782    0.7310 C   0  0  0  0  0  0  0  0  0  0  0  0
   -2.8624    0.4853    0.8528 C   0  0  0  0  0  0  0  0  0  0  0  0
   -3.3630    1.2010   -0.2484 C   0  0  0  0  0  0  0  0  0  0  0  0
   -4.5773    1.8891   -0.1513 C   0  0  0  0  0  0  0  0  0  0  0  0
   -5.1922    2.7822   -1.5301 Cl  0  0  0  0  0  0  0  0  0  0  0  0
   -5.3026    1.8616    1.0437 C   0  0  0  0  0  0  0  0  0  0  0  0
   -4.8171    1.1446    2.1402 C   0  0  0  0  0  0  0  0  0  0  0  0
   -3.6041    0.4546    2.0486 C   0  0  0  0  0  0  0  0  0  0  0  0
   -3.1551   -0.2433    3.1226 F   0  0  0  0  0  0  0  0  0  0  0  0
   -1.9542   -1.4570   -1.6568 H   0  0  0  0  0  0  0  0  0  0  0  0
   -2.6492   -2.9005   -1.1152 H   0  0  0  0  0  0  0  0  0  0  0  0
   -2.4745   -2.1809    1.1812 H   0  0  0  0  0  0  0  0  0  0  0  0
   -0.0332   -2.4905    1.4072 H   0  0  0  0  0  0  0  0  0  0  0  0
   -0.7720   -3.6673    0.3113 H   0  0  0  0  0  0  0  0  0  0  0  0
    2.1346   -1.8621    1.3494 H   0  0  0  0  0  0  0  0  0  0  0  0
    1.4126   -0.2080    1.3358 H   0  0  0  0  0  0  0  0  0  0  0  0
    4.1664   -1.1281    0.3091 H   0  0  0  0  0  0  0  0  0  0  0  0
    3.7941    0.0549    1.6247 H   0  0  0  0  0  0  0  0  0  0  0  0
    0.6874    0.1978   -1.9900 H   0  0  0  0  0  0  0  0  0  0  0  0
    2.0038   -0.8911   -2.5750 H   0  0  0  0  0  0  0  0  0  0  0  0
   -1.0129   -0.2072    1.6920 H   0  0  0  0  0  0  0  0  0  0  0  0
   -0.9261    0.1920   -0.0449 H   0  0  0  0  0  0  0  0  0  0  0  0
   -2.8117    1.2218   -1.1807 H   0  0  0  0  0  0  0  0  0  0  0  0
   -6.2430    2.3919    1.1228 H   0  0  0  0  0  0  0  0  0  0  0  0
   -5.3841    1.1218    3.0620 H   0  0  0  0  0  0  0  0  0  0  0  0
  1  2  1  0
  2  3  1  0
  3  4  1  0
  4  5  2  0
  4  6  1  0
  6  7  1  0
  7  8  1  0
  8  9  1  0
  9 10  1  0
 10 11  2  0
 11 12  1  0
 12 13  2  0
 13 14  1  0
 14 15  1  0
 14 16  1  0
 14 17  1  0
 10 18  1  0
  2 19  1  0
 19 20  1  0
 20 21  2  0
 21 22  1  0
 22 23  1  0
 22 24  2  0
 24 25  1  0
 25 26  2  0
 26 27  1  0
 18  6  1  0
 26 20  1  0
 13  9  1  0
  1 28  1  0
  1 29  1  0
  2 30  1  1
  3 31  1  0
  3 32  1  0
  7 33  1  0
  7 34  1  0
  8 35  1  0
  8 36  1  0
 18 37  1  0
 18 38  1  0
 19 39  1  0
 19 40  1  0
 21 41  1  0
 24 42  1  0
 25 43  1  0
M  END
$$$$
