
     RDKit          3D

 58 61  0  0  0  0  0  0  0  0999 V2000
    2.6848   -1.2648    1.1129 N   0  0  0  0  0  0  0  0  0  0  0  0
    3.4039   -0.4313    0.1444 C   0  0  1  0  0  0  0  0  0  0  0  0
    2.4866    0.7038   -0.3526 C   0  0  0  0  0  0  0  0  0  0  0  0
    1.2501    0.1543   -1.0033 C   0  0  0  0  0  0  0  0  0  0  0  0
    1.2825   -0.1308   -2.2301 O   0  0  0  0  0  0  0  0  0  0  0  0
    0.0679   -0.0826   -0.2149 N   0  0  0  0  0  0  0  0  0  0  0  0
   -1.1694   -0.7350   -0.6923 C   0  0  0  0  0  0  0  0  0  0  0  0
   -2.1250   -0.8056    0.4885 C   0  0  0  0  0  0  0  0  0  0  0  0
   -2.0992   -1.7667    1.4341 N   0  0  0  0  0  0  0  0  0  0  0  0
   -3.0346   -1.4513    2.3157 N   0  0  0  0  0  0  0  0  0  0  0  0
   -3.5903   -0.3023    1.8843 C   0  0  0  0  0  0  0  0  0  0  0  0
   -4.6830    0.4099    2.5737 C   0  0  0  0  0  0  0  0  0  0  0  0
   -5.1991    1.6004    2.0339 C   0  0  0  0  0  0  0  0  0  0  0  0
   -6.2356    2.2783    2.6832 C   0  0  0  0  0  0  0  0  0  0  0  0
   -6.7646    1.7746    3.8742 C   0  0  0  0  0  0  0  0  0  0  0  0
   -6.2582    0.5912    4.4186 C   0  0  0  0  0  0  0  0  0  0  0  0
   -6.7726    0.1034    5.5743 F   0  0  0  0  0  0  0  0  0  0  0  0
   -5.2214   -0.0904    3.7724 C   0  0  0  0  0  0  0  0  0  0  0  0
   -3.0299    0.1026    0.7700 O   0  0  0  0  0  0  0  0  0  0  0  0
   -1.7967    0.1236   -1.8342 C   0  0  0  0  0  0  0  0  0  0  0  0
   -3.1236   -0.4235   -2.3811 C   0  0  0  0  0  0  0  0  0  0  0  0
   -2.9192   -2.0993   -2.9388 S   0  0  0  0  0  0  0  0  0  0  0  0
   -4.2621   -2.7289   -3.1789 O   0  0  0  0  0  0  0  0  0  0  0  0
   -2.1164   -2.1232   -4.2092 O   0  0  0  0  0  0  0  0  0  0  0  0
   -2.0552   -2.9782   -1.6576 C   0  0  0  0  0  0  0  0  0  0  0  0
   -0.8330   -2.1737   -1.1945 C   0  0  0  0  0  0  0  0  0  0  0  0
    4.7037    0.1216    0.7742 C   0  0  0  0  0  0  0  0  0  0  0  0
    5.5942    0.7878   -0.2469 C   0  0  0  0  0  0  0  0  0  0  0  0
    5.6211    2.1893   -0.3527 C   0  0  0  0  0  0  0  0  0  0  0  0
    6.4275    2.8104   -1.3115 C   0  0  0  0  0  0  0  0  0  0  0  0
    6.4451    4.1630   -1.4057 F   0  0  0  0  0  0  0  0  0  0  0  0
    7.2117    2.0379   -2.1734 C   0  0  0  0  0  0  0  0  0  0  0  0
    7.9935    2.6390   -3.1041 F   0  0  0  0  0  0  0  0  0  0  0  0
    7.1890    0.6438   -2.0776 C   0  0  0  0  0  0  0  0  0  0  0  0
    6.3837    0.0171   -1.1209 C   0  0  0  0  0  0  0  0  0  0  0  0
    6.3747   -1.3381   -1.0465 F   0  0  0  0  0  0  0  0  0  0  0  0
    3.2790   -2.0909    1.3551 H   0  0  0  0  0  0  0  0  0  0  0  0
    2.5286   -0.7196    1.9924 H   0  0  0  0  0  0  0  0  0  0  0  0
    3.6741   -1.0691   -0.7276 H   0  0  0  0  0  0  0  0  0  0  0  0
    2.2041    1.3658    0.4947 H   0  0  0  0  0  0  0  0  0  0  0  0
    3.0244    1.3284   -1.0976 H   0  0  0  0  0  0  0  0  0  0  0  0
    0.1180    0.2163    0.7869 H   0  0  0  0  0  0  0  0  0  0  0  0
   -4.8022    2.0057    1.1112 H   0  0  0  0  0  0  0  0  0  0  0  0
   -6.6289    3.1947    2.2625 H   0  0  0  0  0  0  0  0  0  0  0  0
   -7.5669    2.3018    4.3742 H   0  0  0  0  0  0  0  0  0  0  0  0
   -4.8414   -1.0059    4.2085 H   0  0  0  0  0  0  0  0  0  0  0  0
   -1.0935    0.2028   -2.6880 H   0  0  0  0  0  0  0  0  0  0  0  0
   -1.9668    1.1594   -1.4669 H   0  0  0  0  0  0  0  0  0  0  0  0
   -3.9132   -0.3931   -1.6025 H   0  0  0  0  0  0  0  0  0  0  0  0
   -3.4602    0.2031   -3.2339 H   0  0  0  0  0  0  0  0  0  0  0  0
   -2.7475   -3.1621   -0.8102 H   0  0  0  0  0  0  0  0  0  0  0  0
   -1.7251   -3.9624   -2.0523 H   0  0  0  0  0  0  0  0  0  0  0  0
   -0.1217   -2.1297   -2.0443 H   0  0  0  0  0  0  0  0  0  0  0  0
   -0.3225   -2.7397   -0.3847 H   0  0  0  0  0  0  0  0  0  0  0  0
    5.2694   -0.7114    1.2458 H   0  0  0  0  0  0  0  0  0  0  0  0
    4.4526    0.8325    1.5923 H   0  0  0  0  0  0  0  0  0  0  0  0
    5.0129    2.7997    0.3035 H   0  0  0  0  0  0  0  0  0  0  0  0
    7.7955    0.0472   -2.7470 H   0  0  0  0  0  0  0  0  0  0  0  0
  1  2  1  0
  2  3  1  0
  3  4  1  0
  4  5  2  0
  4  6  1  0
  6  7  1  0
  7  8  1  0
  8  9  2  0
  9 10  1  0
 10 11  2  0
 11 12  1  0
 12 13  2  0
 13 14  1  0
 14 15  2  0
 15 16  1  0
 16 17  1  0
 16 18  2  0
 11 19  1  0
  7 20  1  0
 20 21  1  0
 21 22  1  0
 22 23  2  0
 22 24  2  0
 22 25  1  0
 25 26  1  0
  2 27  1  0
 27 28  1  0
 28 29  2  0
 29 30  1  0
 30 31  1  0
 30 32  2  0
 32 33  1  0
 32 34  1  0
 34 35  2  0
 35 36  1  0
 26  7  1  0
 35 28  1  0
 19  8  1  0
 18 12  1  0
  1 37  1  0
  1 38  1  0
  2 39  1  6
  3 40  1  0
  3 41  1  0
  6 42  1  0
 13 43  1  0
 14 44  1  0
 15 45  1  0
 18 46  1  0
 20 47  1  0
 20 48  1  0
 21 49  1  0
 21 50  1  0
 25 51  1  0
 25 52  1  0
 26 53  1  0
 26 54  1  0
 27 55  1  0
 27 56  1  0
 29 57  1  0
 34 58  1  0
M  END
$$$$
