
     RDKit          3D

 48 49  0  0  0  0  0  0  0  0999 V2000
    0.6878    0.0000    0.0000 Cl  0  0  0  0  0  0  0  0  0  0  0  0
   -2.3350   -1.9562    0.3660 N   0  0  0  0  0  0  0  0  0  0  0  0
   -1.8307   -0.5834    0.4687 C   0  0  1  0  0  0  0  0  0  0  0  0
   -1.5674    0.0043   -0.9357 C   0  0  0  0  0  0  0  0  0  0  0  0
   -0.3596   -0.6243   -1.5824 C   0  0  0  0  0  0  0  0  0  0  0  0
   -0.5488   -1.4975   -2.4734 O   0  0  0  0  0  0  0  0  0  0  0  0
    0.9884   -0.2835   -1.1809 N   0  0  0  0  0  0  0  0  0  0  0  0
    2.1098   -1.1046   -1.6854 C   0  0  0  0  0  0  0  0  0  0  0  0
    3.2409   -1.1961   -0.6552 C   0  0  0  0  0  0  0  0  0  0  0  0
    3.5403    0.1360   -0.1492 N   0  0  0  0  0  0  0  0  0  0  0  0
    2.6610    1.1397   -0.0665 C   0  0  0  0  0  0  0  0  0  0  0  0
    3.1930    2.2181    0.5381 N   0  0  0  0  0  0  0  0  0  0  0  0
    4.4391    1.8945    0.8613 N   0  0  0  0  0  0  0  0  0  0  0  0
    4.6416    0.6212    0.4553 C   0  0  0  0  0  0  0  0  0  0  0  0
    5.9279   -0.1463    0.6368 C   0  0  0  0  0  0  0  0  0  0  0  0
    5.6453   -1.3553    1.2491 F   0  0  0  0  0  0  0  0  0  0  0  0
    6.4739   -0.3988   -0.6096 F   0  0  0  0  0  0  0  0  0  0  0  0
    6.9582    0.6077    1.4876 C   0  0  0  0  0  0  0  0  0  0  0  0
    8.0949   -0.1676    1.6302 F   0  0  0  0  0  0  0  0  0  0  0  0
    6.4411    0.8730    2.7439 F   0  0  0  0  0  0  0  0  0  0  0  0
    7.3084    1.7989    0.8758 F   0  0  0  0  0  0  0  0  0  0  0  0
    1.2495    1.0289   -0.5496 C   0  0  0  0  0  0  0  0  0  0  0  0
   -2.8139    0.2957    1.2756 C   0  0  0  0  0  0  0  0  0  0  0  0
   -4.1887    0.3847    0.6509 C   0  0  0  0  0  0  0  0  0  0  0  0
   -4.4814    1.4173   -0.2578 C   0  0  0  0  0  0  0  0  0  0  0  0
   -5.7422    1.4970   -0.8566 C   0  0  0  0  0  0  0  0  0  0  0  0
   -6.0137    2.4945   -1.7339 F   0  0  0  0  0  0  0  0  0  0  0  0
   -6.7224    0.5495   -0.5522 C   0  0  0  0  0  0  0  0  0  0  0  0
   -6.4445   -0.4776    0.3528 C   0  0  0  0  0  0  0  0  0  0  0  0
   -5.1848   -0.5637    0.9549 C   0  0  0  0  0  0  0  0  0  0  0  0
   -4.9438   -1.5642    1.8394 F   0  0  0  0  0  0  0  0  0  0  0  0
   -0.6878    0.0000    0.0000 H   0  0  0  0  0  0  0  0  0  0  0  0
   -1.6062   -2.5476   -0.0947 H   0  0  0  0  0  0  0  0  0  0  0  0
   -2.4341   -2.3420    1.3332 H   0  0  0  0  0  0  0  0  0  0  0  0
   -0.8717   -0.5985    1.0354 H   0  0  0  0  0  0  0  0  0  0  0  0
   -1.4234    1.1035   -0.8794 H   0  0  0  0  0  0  0  0  0  0  0  0
   -2.4576   -0.1648   -1.5807 H   0  0  0  0  0  0  0  0  0  0  0  0
    1.7756   -2.1392   -1.9168 H   0  0  0  0  0  0  0  0  0  0  0  0
    2.4989   -0.6479   -2.6211 H   0  0  0  0  0  0  0  0  0  0  0  0
    4.1408   -1.6386   -1.1328 H   0  0  0  0  0  0  0  0  0  0  0  0
    2.9241   -1.8442    0.1901 H   0  0  0  0  0  0  0  0  0  0  0  0
    0.5927    1.1647    0.3338 H   0  0  0  0  0  0  0  0  0  0  0  0
    1.0466    1.8399   -1.2808 H   0  0  0  0  0  0  0  0  0  0  0  0
   -2.3852    1.3163    1.3851 H   0  0  0  0  0  0  0  0  0  0  0  0
   -2.8987   -0.1061    2.3088 H   0  0  0  0  0  0  0  0  0  0  0  0
   -3.7317    2.1590   -0.5040 H   0  0  0  0  0  0  0  0  0  0  0  0
   -7.6987    0.6113   -1.0156 H   0  0  0  0  0  0  0  0  0  0  0  0
   -7.2080   -1.2076    0.5890 H   0  0  0  0  0  0  0  0  0  0  0  0
  2  3  1  0
  3  4  1  0
  4  5  1  0
  5  6  2  0
  5  7  1  0
  7  8  1  0
  8  9  1  0
  9 10  1  0
 10 11  1  0
 11 12  2  0
 12 13  1  0
 13 14  2  0
 14 15  1  0
 15 16  1  0
 15 17  1  0
 15 18  1  0
 18 19  1  0
 18 20  1  0
 18 21  1  0
 11 22  1  0
  3 23  1  0
 23 24  1  0
 24 25  2  0
 25 26  1  0
 26 27  1  0
 26 28  2  0
 28 29  1  0
 29 30  2  0
 30 31  1  0
 22  7  1  0
 30 24  1  0
 14 10  1  0
  1 32  1  0
  2 33  1  0
  2 34  1  0
  3 35  1  1
  4 36  1  0
  4 37  1  0
  8 38  1  0
  8 39  1  0
  9 40  1  0
  9 41  1  0
 22 42  1  0
 22 43  1  0
 23 44  1  0
 23 45  1  0
 25 46  1  0
 28 47  1  0
 29 48  1  0
M  END
$$$$
