
     RDKit          3D

 46 49  0  0  0  0  0  0  0  0999 V2000
   -2.7932    2.0980   -0.7612 N   0  0  0  0  0  0  0  0  0  0  0  0
   -3.3981    1.1270   -0.9359 C   0  0  0  0  0  0  0  0  0  0  0  0
   -4.1677   -0.1080   -1.1589 C   0  0  2  0  0  0  0  0  0  0  0  0
   -5.4803    0.1920   -1.8837 C   0  0  0  0  0  0  0  0  0  0  0  0
   -6.5541    0.2177   -0.7990 C   0  0  2  0  0  0  0  0  0  0  0  0
   -6.7606    1.5217   -0.3786 F   0  0  0  0  0  0  0  0  0  0  0  0
   -5.9936   -0.6135    0.3491 C   0  0  0  0  0  0  0  0  0  0  0  0
   -4.5597   -0.6941    0.1177 N   0  0  0  0  0  0  0  0  0  0  0  0
   -3.6754   -1.3835    1.0249 C   0  0  0  0  0  0  0  0  0  0  0  0
   -4.1429   -1.8982    2.0769 O   0  0  0  0  0  0  0  0  0  0  0  0
   -2.1947   -1.4661    0.7830 C   0  0  0  0  0  0  0  0  0  0  0  0
   -1.5534   -0.2203    1.2086 N   0  0  0  0  0  0  0  0  0  0  0  0
   -0.1390   -0.2388    0.8103 C   0  0  1  0  0  0  0  0  0  0  0  0
    0.7211    0.7440    1.5979 C   0  0  2  0  0  0  0  0  0  0  0  0
    2.0225    1.1723    0.9339 C   0  0  0  0  0  0  0  0  0  0  0  0
    2.8311   -0.0298    0.8189 N   0  0  0  0  0  0  0  0  0  0  0  0
    4.1385   -0.0463    0.2279 C   0  0  0  0  0  0  0  0  0  0  0  0
    4.8418   -1.2090    0.1536 N   0  0  0  0  0  0  0  0  0  0  0  0
    6.0799   -1.2445   -0.4025 C   0  0  0  0  0  0  0  0  0  0  0  0
    6.6496   -0.0775   -0.9088 C   0  0  0  0  0  0  0  0  0  0  0  0
    5.9194    1.1135   -0.8283 C   0  0  0  0  0  0  0  0  0  0  0  0
    6.4920    2.3943   -1.3604 C   0  0  0  0  0  0  0  0  0  0  0  0
    6.7511    2.2613   -2.7123 F   0  0  0  0  0  0  0  0  0  0  0  0
    5.6025    3.4384   -1.1757 F   0  0  0  0  0  0  0  0  0  0  0  0
    7.6698    2.6876   -0.6976 F   0  0  0  0  0  0  0  0  0  0  0  0
    4.6822    1.1011   -0.2624 N   0  0  0  0  0  0  0  0  0  0  0  0
    2.1856   -1.2125    1.3633 C   0  0  0  0  0  0  0  0  0  0  0  0
    0.8273   -0.7536    1.8732 C   0  0  2  0  0  0  0  0  0  0  0  0
   -3.5664   -0.8252   -1.7570 H   0  0  0  0  0  0  0  0  0  0  0  0
   -5.7031   -0.6389   -2.5893 H   0  0  0  0  0  0  0  0  0  0  0  0
   -5.4572    1.1419   -2.4638 H   0  0  0  0  0  0  0  0  0  0  0  0
   -7.5137   -0.2023   -1.1714 H   0  0  0  0  0  0  0  0  0  0  0  0
   -6.2021   -0.1318    1.3292 H   0  0  0  0  0  0  0  0  0  0  0  0
   -6.4303   -1.6358    0.3338 H   0  0  0  0  0  0  0  0  0  0  0  0
   -1.7726   -2.3247    1.3535 H   0  0  0  0  0  0  0  0  0  0  0  0
   -2.0045   -1.6584   -0.2943 H   0  0  0  0  0  0  0  0  0  0  0  0
   -1.6524   -0.1420    2.2494 H   0  0  0  0  0  0  0  0  0  0  0  0
    0.1102   -0.3570   -0.2680 H   0  0  0  0  0  0  0  0  0  0  0  0
    0.2749    1.3244    2.4341 H   0  0  0  0  0  0  0  0  0  0  0  0
    2.5431    1.9184    1.5711 H   0  0  0  0  0  0  0  0  0  0  0  0
    1.8217    1.6030   -0.0706 H   0  0  0  0  0  0  0  0  0  0  0  0
    6.6217   -2.1795   -0.4515 H   0  0  0  0  0  0  0  0  0  0  0  0
    7.6368   -0.1005   -1.3535 H   0  0  0  0  0  0  0  0  0  0  0  0
    2.7867   -1.6178    2.2048 H   0  0  0  0  0  0  0  0  0  0  0  0
    2.0624   -1.9855    0.5747 H   0  0  0  0  0  0  0  0  0  0  0  0
    0.4430   -1.0616    2.8692 H   0  0  0  0  0  0  0  0  0  0  0  0
  1  2  3  0
  2  3  1  0
  3  4  1  0
  4  5  1  0
  5  6  1  0
  5  7  1  0
  7  8  1  0
  8  9  1  0
  9 10  2  0
  9 11  1  0
 11 12  1  0
 12 13  1  0
 13 14  1  0
 14 15  1  0
 15 16  1  0
 16 17  1  0
 17 18  2  0
 18 19  1  0
 19 20  2  0
 20 21  1  0
 21 22  1  0
 22 23  1  0
 22 24  1  0
 22 25  1  0
 21 26  2  0
 16 27  1  0
 27 28  1  0
  8  3  1  0
 28 13  1  0
 28 14  1  0
 26 17  1  0
  3 29  1  6
  4 30  1  0
  4 31  1  0
  5 32  1  6
  7 33  1  0
  7 34  1  0
 11 35  1  0
 11 36  1  0
 12 37  1  0
 13 38  1  6
 14 39  1  1
 15 40  1  0
 15 41  1  0
 19 42  1  0
 20 43  1  0
 27 44  1  0
 27 45  1  0
 28 46  1  1
M  END
$$$$
