
     RDKit          3D

 38 41  0  0  0  0  0  0  0  0999 V2000
    1.5091   -0.0738    2.5625 N   0  0  0  0  0  0  0  0  0  0  0  0
    0.8184   -0.2849    1.2869 C   0  0  1  0  0  0  0  0  0  0  0  0
   -0.6810    0.0616    1.4084 C   0  0  0  0  0  0  0  0  0  0  0  0
   -1.3919    0.0807    0.0656 C   0  0  0  0  0  0  0  0  0  0  0  0
   -0.6241    0.2183   -1.1130 C   0  0  0  0  0  0  0  0  0  0  0  0
   -1.2395    0.2041   -2.3647 C   0  0  0  0  0  0  0  0  0  0  0  0
   -2.6226    0.0901   -2.4714 C   0  0  0  0  0  0  0  0  0  0  0  0
   -3.4160    0.0084   -1.3205 C   0  0  0  0  0  0  0  0  0  0  0  0
   -4.8125   -0.0730   -1.4400 C   0  0  0  0  0  0  0  0  0  0  0  0
   -5.6154   -0.1293   -0.2998 C   0  0  0  0  0  0  0  0  0  0  0  0
   -7.5147   -0.2347   -0.4732 Br  0  0  0  0  0  0  0  0  0  0  0  0
   -5.0320   -0.0981    0.9670 C   0  0  0  0  0  0  0  0  0  0  0  0
   -3.6439   -0.0214    1.1036 C   0  0  0  0  0  0  0  0  0  0  0  0
   -2.8091    0.0188   -0.0351 C   0  0  0  0  0  0  0  0  0  0  0  0
    0.7669    0.3543   -1.0521 O   0  0  0  0  0  0  0  0  0  0  0  0
    1.4633    0.5620    0.1749 C   0  0  2  0  0  0  0  0  0  0  0  0
    2.9270    0.2216   -0.0055 C   0  0  0  0  0  0  0  0  0  0  0  0
    3.9125    1.0857    0.5045 C   0  0  0  0  0  0  0  0  0  0  0  0
    5.2686    0.7733    0.3690 C   0  0  0  0  0  0  0  0  0  0  0  0
    6.2087    1.6171    0.8621 F   0  0  0  0  0  0  0  0  0  0  0  0
    5.6544   -0.4080   -0.2702 C   0  0  0  0  0  0  0  0  0  0  0  0
    6.9694   -0.7125   -0.4011 F   0  0  0  0  0  0  0  0  0  0  0  0
    4.6844   -1.2798   -0.7709 C   0  0  0  0  0  0  0  0  0  0  0  0
    3.3261   -0.9737   -0.6384 C   0  0  0  0  0  0  0  0  0  0  0  0
    2.4050   -1.8440   -1.1248 F   0  0  0  0  0  0  0  0  0  0  0  0
    1.3735    0.9162    2.8729 H   0  0  0  0  0  0  0  0  0  0  0  0
    1.0736   -0.6916    3.2855 H   0  0  0  0  0  0  0  0  0  0  0  0
    0.9045   -1.3606    1.0125 H   0  0  0  0  0  0  0  0  0  0  0  0
   -1.1392   -0.7050    2.0686 H   0  0  0  0  0  0  0  0  0  0  0  0
   -0.8050    1.0593    1.8827 H   0  0  0  0  0  0  0  0  0  0  0  0
   -0.6394    0.2886   -3.2619 H   0  0  0  0  0  0  0  0  0  0  0  0
   -3.0747    0.0834   -3.4563 H   0  0  0  0  0  0  0  0  0  0  0  0
   -5.2802   -0.0868   -2.4176 H   0  0  0  0  0  0  0  0  0  0  0  0
   -5.6559   -0.1295    1.8511 H   0  0  0  0  0  0  0  0  0  0  0  0
   -3.2428    0.0212    2.1061 H   0  0  0  0  0  0  0  0  0  0  0  0
    1.3580    1.6378    0.4425 H   0  0  0  0  0  0  0  0  0  0  0  0
    3.6309    2.0012    1.0102 H   0  0  0  0  0  0  0  0  0  0  0  0
    4.9854   -2.1971   -1.2605 H   0  0  0  0  0  0  0  0  0  0  0  0
  1  2  1  0
  2  3  1  0
  3  4  1  0
  4  5  2  0
  5  6  1  0
  6  7  2  0
  7  8  1  0
  8  9  2  0
  9 10  1  0
 10 11  1  0
 10 12  2  0
 12 13  1  0
 13 14  2  0
  5 15  1  0
 15 16  1  0
 16 17  1  0
 17 18  2  0
 18 19  1  0
 19 20  1  0
 19 21  2  0
 21 22  1  0
 21 23  1  0
 23 24  2  0
 24 25  1  0
 16  2  1  0
 24 17  1  0
 14  4  1  0
 14  8  1  0
  1 26  1  0
  1 27  1  0
  2 28  1  6
  3 29  1  0
  3 30  1  0
  6 31  1  0
  7 32  1  0
  9 33  1  0
 12 34  1  0
 13 35  1  0
 16 36  1  1
 18 37  1  0
 23 38  1  0
M  END
$$$$
