
     RDKit          3D

 49 51  0  0  0  0  0  0  0  0999 V2000
   -2.9778    1.8933   -0.6789 C   0  0  0  0  0  0  0  0  0  0  0  0
   -2.9388    0.6411    0.2481 C   0  0  0  0  0  0  0  0  0  0  0  0
   -4.2948    0.6677    1.0258 C   0  0  0  0  0  0  0  0  0  0  0  0
   -1.7019    0.5630    1.1635 C   0  0  1  0  0  0  0  0  0  0  0  0
   -1.8896   -0.8017    1.8759 C   0  0  0  0  0  0  0  0  0  0  0  0
   -2.5016   -1.6835    0.7676 C   0  0  0  0  0  0  0  0  0  0  0  0
   -2.5952   -0.7028   -0.4354 C   0  0  1  0  0  0  0  0  0  0  0  0
   -3.5829   -1.1761   -1.5120 C   0  0  0  0  0  0  0  0  0  0  0  0
   -1.1258   -0.5133   -0.9363 C   0  0  1  0  0  0  0  0  0  0  0  0
   -1.0645    0.1032   -2.1991 O   0  0  0  0  0  0  0  0  0  0  0  0
   -0.4986    0.3670    0.1864 C   0  0  1  0  0  0  0  0  0  0  0  0
    0.0283    1.6528   -0.3136 N   0  0  0  0  0  0  0  0  0  0  0  0
    1.3975    1.5271   -0.8429 C   0  0  0  0  0  0  0  0  0  0  0  0
    2.4300    1.4315    0.2598 C   0  0  0  0  0  0  0  0  0  0  0  0
    2.4111    2.2952    1.1789 O   0  0  0  0  0  0  0  0  0  0  0  0
    3.4629    0.4242    0.2644 N   0  0  0  0  0  0  0  0  0  0  0  0
    4.5057    0.3987    1.2792 C   0  0  0  0  0  0  0  0  0  0  0  0
    5.4067   -0.7755    0.9217 C   0  0  0  0  0  0  0  0  0  0  0  0
    5.0980   -1.0972   -0.5365 C   0  0  0  0  0  0  0  0  0  0  0  0
    3.6868   -0.5641   -0.7833 C   0  0  1  0  0  0  0  0  0  0  0  0
    2.6965   -1.6478   -0.6723 C   0  0  0  0  0  0  0  0  0  0  0  0
    1.9228   -2.5035   -0.5831 N   0  0  0  0  0  0  0  0  0  0  0  0
   -3.0203    2.8143   -0.0588 H   0  0  0  0  0  0  0  0  0  0  0  0
   -3.8863    1.8687   -1.3178 H   0  0  0  0  0  0  0  0  0  0  0  0
   -2.1286    2.0133   -1.3661 H   0  0  0  0  0  0  0  0  0  0  0  0
   -4.4726   -0.1870    1.7023 H   0  0  0  0  0  0  0  0  0  0  0  0
   -5.1465    0.6815    0.3127 H   0  0  0  0  0  0  0  0  0  0  0  0
   -4.3518    1.5873    1.6468 H   0  0  0  0  0  0  0  0  0  0  0  0
   -1.5900    1.4110    1.8733 H   0  0  0  0  0  0  0  0  0  0  0  0
   -0.9324   -1.2255    2.2511 H   0  0  0  0  0  0  0  0  0  0  0  0
   -2.5712   -0.7091    2.7480 H   0  0  0  0  0  0  0  0  0  0  0  0
   -1.8571   -2.5637    0.5504 H   0  0  0  0  0  0  0  0  0  0  0  0
   -3.4976   -2.0730    1.0688 H   0  0  0  0  0  0  0  0  0  0  0  0
   -3.2306   -2.1329   -1.9522 H   0  0  0  0  0  0  0  0  0  0  0  0
   -3.6725   -0.4228   -2.3221 H   0  0  0  0  0  0  0  0  0  0  0  0
   -4.5891   -1.3403   -1.0726 H   0  0  0  0  0  0  0  0  0  0  0  0
   -0.5862   -1.4882   -0.9851 H   0  0  0  0  0  0  0  0  0  0  0  0
   -1.1704   -0.6144   -2.8766 H   0  0  0  0  0  0  0  0  0  0  0  0
    0.3168   -0.1924    0.7010 H   0  0  0  0  0  0  0  0  0  0  0  0
    0.0151    2.3702    0.4485 H   0  0  0  0  0  0  0  0  0  0  0  0
    1.4534    0.6682   -1.5406 H   0  0  0  0  0  0  0  0  0  0  0  0
    1.6248    2.4321   -1.4445 H   0  0  0  0  0  0  0  0  0  0  0  0
    4.0606    0.2594    2.2882 H   0  0  0  0  0  0  0  0  0  0  0  0
    5.0814    1.3494    1.2473 H   0  0  0  0  0  0  0  0  0  0  0  0
    5.1477   -1.6516    1.5562 H   0  0  0  0  0  0  0  0  0  0  0  0
    6.4802   -0.5238    1.0637 H   0  0  0  0  0  0  0  0  0  0  0  0
    5.8142   -0.5472   -1.1864 H   0  0  0  0  0  0  0  0  0  0  0  0
    5.2015   -2.1860   -0.7439 H   0  0  0  0  0  0  0  0  0  0  0  0
    3.6327   -0.0962   -1.7899 H   0  0  0  0  0  0  0  0  0  0  0  0
  1  2  1  0
  2  3  1  0
  2  4  1  0
  4  5  1  0
  5  6  1  0
  6  7  1  0
  7  8  1  6
  7  9  1  0
  9 10  1  0
  9 11  1  0
 11 12  1  0
 12 13  1  0
 13 14  1  0
 14 15  2  0
 14 16  1  0
 16 17  1  0
 17 18  1  0
 18 19  1  0
 19 20  1  0
 20 21  1  0
 21 22  3  0
  7  2  1  0
 20 16  1  0
 11  4  1  0
  1 23  1  0
  1 24  1  0
  1 25  1  0
  3 26  1  0
  3 27  1  0
  3 28  1  0
  4 29  1  1
  5 30  1  0
  5 31  1  0
  6 32  1  0
  6 33  1  0
  8 34  1  0
  8 35  1  0
  8 36  1  0
  9 37  1  6
 10 38  1  0
 11 39  1  1
 12 40  1  0
 13 41  1  0
 13 42  1  0
 17 43  1  0
 17 44  1  0
 18 45  1  0
 18 46  1  0
 19 47  1  0
 19 48  1  0
 20 49  1  6
M  END
$$$$
