
     RDKit          3D

 64 68  0  0  0  0  0  0  0  0999 V2000
   -6.5023    0.7116   -1.6017 N   0  0  0  0  0  0  0  0  0  0  0  0
   -5.5648   -0.0294   -0.7525 C   0  0  1  0  0  0  0  0  0  0  0  0
   -4.1352    0.4857   -0.9922 C   0  0  0  0  0  0  0  0  0  0  0  0
   -3.1646   -0.1351    0.0182 C   0  0  1  0  0  0  0  0  0  0  0  0
   -1.8349    0.4633   -0.1189 N   0  0  0  0  0  0  0  0  0  0  0  0
   -0.7344   -0.1637   -0.5764 C   0  0  0  0  0  0  0  0  0  0  0  0
    0.2974    0.7505   -0.5799 C   0  0  0  0  0  0  0  0  0  0  0  0
    1.6494    0.5072   -1.0073 N   0  0  0  0  0  0  0  0  0  0  0  0
    2.1095   -0.7655   -1.5421 C   0  0  0  0  0  0  0  0  0  0  0  0
    3.5686   -0.5457   -1.9824 C   0  0  0  0  0  0  0  0  0  0  0  0
    4.0304    0.7910   -1.3435 C   0  0  0  0  0  0  0  0  0  0  0  0
    4.6745    1.6071   -2.2948 O   0  0  0  0  0  0  0  0  0  0  0  0
    4.9305    0.5761   -0.1456 C   0  0  0  0  0  0  0  0  0  0  0  0
    4.7633   -0.4351    0.5915 O   0  0  0  0  0  0  0  0  0  0  0  0
    5.9151    1.5597    0.2106 N   0  0  0  0  0  0  0  0  0  0  0  0
    6.8649    1.3549    1.3017 C   0  0  0  0  0  0  0  0  0  0  0  0
    7.8876    0.3222    0.9129 C   0  0  0  0  0  0  0  0  0  0  0  0
    8.8632    0.6292   -0.0492 C   0  0  0  0  0  0  0  0  0  0  0  0
    9.8001   -0.3352   -0.4361 C   0  0  0  0  0  0  0  0  0  0  0  0
   11.0162    0.0563   -1.6380 Cl  0  0  0  0  0  0  0  0  0  0  0  0
    9.7646   -1.6126    0.1324 C   0  0  0  0  0  0  0  0  0  0  0  0
    8.7918   -1.9277    1.0866 C   0  0  0  0  0  0  0  0  0  0  0  0
    8.7441   -3.5327    1.7929 Cl  0  0  0  0  0  0  0  0  0  0  0  0
    7.8542   -0.9645    1.4752 C   0  0  0  0  0  0  0  0  0  0  0  0
    2.7506    1.3942   -0.8872 C   0  0  0  0  0  0  0  0  0  0  0  0
    2.6589    2.5611   -0.4207 O   0  0  0  0  0  0  0  0  0  0  0  0
   -0.2501    1.9340   -0.1158 C   0  0  0  0  0  0  0  0  0  0  0  0
   -1.5546    1.7303    0.1550 N   0  0  0  0  0  0  0  0  0  0  0  0
   -3.7050    0.0661    1.4412 C   0  0  0  0  0  0  0  0  0  0  0  0
   -4.9842   -0.5233    1.5742 O   0  0  0  0  0  0  0  0  0  0  0  0
   -5.9300    0.1403    0.7482 C   0  0  2  0  0  0  0  0  0  0  0  0
   -7.3020   -0.4363    1.0364 C   0  0  0  0  0  0  0  0  0  0  0  0
   -7.4874   -1.8318    1.0627 C   0  0  0  0  0  0  0  0  0  0  0  0
   -8.7524   -2.3751    1.3045 C   0  0  0  0  0  0  0  0  0  0  0  0
   -8.9181   -3.7205    1.3308 F   0  0  0  0  0  0  0  0  0  0  0  0
   -9.8466   -1.5334    1.5156 C   0  0  0  0  0  0  0  0  0  0  0  0
   -9.6787   -0.1474    1.4821 C   0  0  0  0  0  0  0  0  0  0  0  0
   -8.4160    0.4042    1.2409 C   0  0  0  0  0  0  0  0  0  0  0  0
   -8.2871    1.7546    1.1992 F   0  0  0  0  0  0  0  0  0  0  0  0
   -6.1929    0.6184   -2.5967 H   0  0  0  0  0  0  0  0  0  0  0  0
   -7.4352    0.2416   -1.5575 H   0  0  0  0  0  0  0  0  0  0  0  0
   -5.5975   -1.1104   -1.0223 H   0  0  0  0  0  0  0  0  0  0  0  0
   -4.1209    1.5945   -0.8943 H   0  0  0  0  0  0  0  0  0  0  0  0
   -3.8091    0.2257   -2.0231 H   0  0  0  0  0  0  0  0  0  0  0  0
   -3.1019   -1.2303   -0.1770 H   0  0  0  0  0  0  0  0  0  0  0  0
   -0.6908   -1.2003   -0.8854 H   0  0  0  0  0  0  0  0  0  0  0  0
    2.0632   -1.5400   -0.7461 H   0  0  0  0  0  0  0  0  0  0  0  0
    1.4796   -1.0742   -2.4046 H   0  0  0  0  0  0  0  0  0  0  0  0
    3.5975   -0.4746   -3.0923 H   0  0  0  0  0  0  0  0  0  0  0  0
    4.2076   -1.4086   -1.6928 H   0  0  0  0  0  0  0  0  0  0  0  0
    4.0212    1.8255   -3.0113 H   0  0  0  0  0  0  0  0  0  0  0  0
    5.9552    2.4630   -0.3128 H   0  0  0  0  0  0  0  0  0  0  0  0
    6.3198    1.0618    2.2254 H   0  0  0  0  0  0  0  0  0  0  0  0
    7.3853    2.3125    1.5214 H   0  0  0  0  0  0  0  0  0  0  0  0
    8.8916    1.6146   -0.4983 H   0  0  0  0  0  0  0  0  0  0  0  0
   10.4891   -2.3589   -0.1685 H   0  0  0  0  0  0  0  0  0  0  0  0
    7.1010   -1.2198    2.2105 H   0  0  0  0  0  0  0  0  0  0  0  0
    0.2459    2.8852    0.0086 H   0  0  0  0  0  0  0  0  0  0  0  0
   -3.0167   -0.4322    2.1563 H   0  0  0  0  0  0  0  0  0  0  0  0
   -3.7331    1.1457    1.7154 H   0  0  0  0  0  0  0  0  0  0  0  0
   -5.9376    1.2277    0.9955 H   0  0  0  0  0  0  0  0  0  0  0  0
   -6.6506   -2.4984    0.8939 H   0  0  0  0  0  0  0  0  0  0  0  0
  -10.8264   -1.9542    1.7016 H   0  0  0  0  0  0  0  0  0  0  0  0
  -10.5308    0.5012    1.6400 H   0  0  0  0  0  0  0  0  0  0  0  0
  1  2  1  0
  2  3  1  0
  3  4  1  0
  4  5  1  0
  5  6  1  0
  6  7  2  0
  7  8  1  0
  8  9  1  0
  9 10  1  0
 10 11  1  0
 11 12  1  0
 11 13  1  0
 13 14  2  0
 13 15  1  0
 15 16  1  0
 16 17  1  0
 17 18  2  0
 18 19  1  0
 19 20  1  0
 19 21  2  0
 21 22  1  0
 22 23  1  0
 22 24  2  0
 11 25  1  0
 25 26  2  0
  7 27  1  0
 27 28  2  0
  4 29  1  0
 29 30  1  0
 30 31  1  0
 31 32  1  0
 32 33  2  0
 33 34  1  0
 34 35  1  0
 34 36  2  0
 36 37  1  0
 37 38  2  0
 38 39  1  0
 31  2  1  0
 38 32  1  0
 28  5  1  0
 25  8  1  0
 24 17  1  0
  1 40  1  0
  1 41  1  0
  2 42  1  6
  3 43  1  0
  3 44  1  0
  4 45  1  6
  6 46  1  0
  9 47  1  0
  9 48  1  0
 10 49  1  0
 10 50  1  0
 12 51  1  0
 15 52  1  0
 16 53  1  0
 16 54  1  0
 18 55  1  0
 21 56  1  0
 24 57  1  0
 27 58  1  0
 29 59  1  0
 29 60  1  0
 31 61  1  1
 33 62  1  0
 36 63  1  0
 37 64  1  0
M  END
$$$$
