
     RDKit          3D

 51 54  0  0  0  0  0  0  0  0999 V2000
   -1.2723    3.8900   -1.9621 C   0  0  0  0  0  0  0  0  0  0  0  0
   -1.4373    3.0781   -0.7570 C   0  0  0  0  0  0  0  0  0  0  0  0
   -1.5689    2.4064    0.2350 C   0  0  0  0  0  0  0  0  0  0  0  0
   -1.7188    1.5824    1.4382 C   0  0  0  0  0  0  0  0  0  0  0  0
   -1.1434    0.2544    1.2113 N   0  0  0  0  0  0  0  0  0  0  0  0
   -1.7967   -0.9224    1.0041 C   0  0  0  0  0  0  0  0  0  0  0  0
   -3.2251   -1.0438    0.9008 N   0  0  0  0  0  0  0  0  0  0  0  0
   -3.9095   -2.1661    1.5439 C   0  0  0  0  0  0  0  0  0  0  0  0
   -4.3213   -3.1783    0.4771 C   0  0  0  0  0  0  0  0  0  0  0  0
   -5.0339   -2.5183   -0.6163 N   0  0  0  0  0  0  0  0  0  0  0  0
   -4.7671   -1.1580   -0.9876 C   0  0  0  0  0  0  0  0  0  0  0  0
   -5.2530   -0.6960   -2.0539 O   0  0  0  0  0  0  0  0  0  0  0  0
   -3.9707   -0.2564   -0.0867 C   0  0  0  0  0  0  0  0  0  0  0  0
   -0.9691   -1.9938    0.8937 N   0  0  0  0  0  0  0  0  0  0  0  0
    0.2511   -1.4389    1.0237 C   0  0  0  0  0  0  0  0  0  0  0  0
    0.1565   -0.1015    1.2126 C   0  0  0  0  0  0  0  0  0  0  0  0
    1.3054    0.6666    1.3671 C   0  0  0  0  0  0  0  0  0  0  0  0
    1.2258    1.9154    1.5266 O   0  0  0  0  0  0  0  0  0  0  0  0
    2.5269    0.0312    1.3343 N   0  0  0  0  0  0  0  0  0  0  0  0
    3.7650    0.8264    1.4526 C   0  0  0  0  0  0  0  0  0  0  0  0
    4.1629    1.3632    0.1081 C   0  0  0  0  0  0  0  0  0  0  0  0
    5.0117    0.6314   -0.7354 C   0  0  0  0  0  0  0  0  0  0  0  0
    5.3256    1.1388   -1.9980 C   0  0  0  0  0  0  0  0  0  0  0  0
    4.7875    2.3591   -2.4102 C   0  0  0  0  0  0  0  0  0  0  0  0
    3.9374    3.0560   -1.5490 C   0  0  0  0  0  0  0  0  0  0  0  0
    3.6434    2.5464   -0.3231 N   0  0  0  0  0  0  0  0  0  0  0  0
    2.5942   -1.3386    1.1336 C   0  0  0  0  0  0  0  0  0  0  0  0
    3.7181   -1.9152    1.1043 O   0  0  0  0  0  0  0  0  0  0  0  0
    1.4476   -2.0836    0.9638 N   0  0  0  0  0  0  0  0  0  0  0  0
    1.5102   -3.5407    0.7854 C   0  0  0  0  0  0  0  0  0  0  0  0
   -0.1959    3.9451   -2.2257 H   0  0  0  0  0  0  0  0  0  0  0  0
   -1.6603    4.9125   -1.7755 H   0  0  0  0  0  0  0  0  0  0  0  0
   -1.8349    3.4277   -2.7991 H   0  0  0  0  0  0  0  0  0  0  0  0
   -1.2101    2.0765    2.2917 H   0  0  0  0  0  0  0  0  0  0  0  0
   -2.7936    1.5060    1.7003 H   0  0  0  0  0  0  0  0  0  0  0  0
   -4.8154   -1.7913    2.0682 H   0  0  0  0  0  0  0  0  0  0  0  0
   -3.2559   -2.6545    2.2997 H   0  0  0  0  0  0  0  0  0  0  0  0
   -3.4158   -3.6776    0.0701 H   0  0  0  0  0  0  0  0  0  0  0  0
   -4.9750   -3.9519    0.9335 H   0  0  0  0  0  0  0  0  0  0  0  0
   -5.6175   -3.1070   -1.2523 H   0  0  0  0  0  0  0  0  0  0  0  0
   -3.2795    0.3504   -0.7101 H   0  0  0  0  0  0  0  0  0  0  0  0
   -4.6672    0.4282    0.4416 H   0  0  0  0  0  0  0  0  0  0  0  0
    3.6207    1.6711    2.1616 H   0  0  0  0  0  0  0  0  0  0  0  0
    4.5921    0.2239    1.8879 H   0  0  0  0  0  0  0  0  0  0  0  0
    5.4244   -0.3185   -0.4201 H   0  0  0  0  0  0  0  0  0  0  0  0
    5.9821    0.5855   -2.6570 H   0  0  0  0  0  0  0  0  0  0  0  0
    5.0239    2.7591   -3.3877 H   0  0  0  0  0  0  0  0  0  0  0  0
    3.5079    4.0002   -1.8562 H   0  0  0  0  0  0  0  0  0  0  0  0
    2.3524   -3.8155    0.1148 H   0  0  0  0  0  0  0  0  0  0  0  0
    1.6530   -4.0300    1.7717 H   0  0  0  0  0  0  0  0  0  0  0  0
    0.5822   -3.9343    0.3187 H   0  0  0  0  0  0  0  0  0  0  0  0
  1  2  1  0
  2  3  3  0
  3  4  1  0
  4  5  1  0
  5  6  1  0
  6  7  1  0
  7  8  1  0
  8  9  1  0
  9 10  1  0
 10 11  1  0
 11 12  2  0
 11 13  1  0
  6 14  2  0
 14 15  1  0
 15 16  2  0
 16 17  1  0
 17 18  2  0
 17 19  1  0
 19 20  1  0
 20 21  1  0
 21 22  2  0
 22 23  1  0
 23 24  2  0
 24 25  1  0
 25 26  2  0
 19 27  1  0
 27 28  2  0
 27 29  1  0
 29 30  1  0
 16  5  1  0
 26 21  1  0
 13  7  1  0
 29 15  1  0
  1 31  1  0
  1 32  1  0
  1 33  1  0
  4 34  1  0
  4 35  1  0
  8 36  1  0
  8 37  1  0
  9 38  1  0
  9 39  1  0
 10 40  1  0
 13 41  1  0
 13 42  1  0
 20 43  1  0
 20 44  1  0
 22 45  1  0
 23 46  1  0
 24 47  1  0
 25 48  1  0
 30 49  1  0
 30 50  1  0
 30 51  1  0
M  END
$$$$
