
     RDKit          3D

 68 71  0  0  0  0  0  0  0  0999 V2000
   -2.6385    4.0788   -2.9817 C   0  0  0  0  0  0  0  0  0  0  0  0
   -2.5611    3.6758   -1.5321 C   0  0  0  0  0  0  0  0  0  0  0  0
   -2.8427    4.6952   -0.4541 C   0  0  0  0  0  0  0  0  0  0  0  0
   -2.2385    2.4009   -1.2304 C   0  0  0  0  0  0  0  0  0  0  0  0
   -2.1319    1.8886    0.1837 C   0  0  0  0  0  0  0  0  0  0  0  0
   -1.7388    0.4760    0.1850 N   0  0  0  0  0  0  0  0  0  0  0  0
   -2.5487   -0.6188    0.2245 C   0  0  0  0  0  0  0  0  0  0  0  0
   -3.9686   -0.5669    0.4428 N   0  0  0  0  0  0  0  0  0  0  0  0
   -4.4890   -0.0568    1.7220 C   0  0  0  0  0  0  0  0  0  0  0  0
   -5.6054   -0.9614    2.2749 C   0  0  0  0  0  0  0  0  0  0  0  0
   -5.3236   -2.4341    1.9493 C   0  0  0  0  0  0  0  0  0  0  0  0
   -5.2342   -2.6897    0.4222 C   0  0  0  0  0  0  0  0  0  0  0  0
   -6.4962   -3.2441   -0.0738 N   0  0  0  0  0  0  0  0  0  0  0  0
   -4.8416   -1.4184   -0.3700 C   0  0  0  0  0  0  0  0  0  0  0  0
   -1.8945   -1.7902    0.0144 N   0  0  0  0  0  0  0  0  0  0  0  0
   -0.6219   -1.3908   -0.1641 C   0  0  0  0  0  0  0  0  0  0  0  0
   -0.5216   -0.0431   -0.0774 C   0  0  0  0  0  0  0  0  0  0  0  0
    0.7006    0.5823   -0.3067 C   0  0  0  0  0  0  0  0  0  0  0  0
    0.8031    1.8372   -0.2341 O   0  0  0  0  0  0  0  0  0  0  0  0
    1.7903   -0.2029   -0.6136 N   0  0  0  0  0  0  0  0  0  0  0  0
    3.1104    0.4190   -0.8429 C   0  0  0  0  0  0  0  0  0  0  0  0
    3.9218    0.4231    0.4301 C   0  0  0  0  0  0  0  0  0  0  0  0
    3.3455    0.7531    1.5030 O   0  0  0  0  0  0  0  0  0  0  0  0
    5.3390    0.1361    0.4406 N   0  0  0  0  0  0  0  0  0  0  0  0
    6.1520    0.5205    1.6057 C   0  0  0  0  0  0  0  0  0  0  0  0
    7.5265    1.0209    1.1483 C   0  0  0  0  0  0  0  0  0  0  0  0
    8.2509    0.0330    0.2088 C   0  0  0  0  0  0  0  0  0  0  0  0
    7.3633   -1.1234   -0.2730 C   0  0  0  0  0  0  0  0  0  0  0  0
    5.9588   -0.6374   -0.6491 C   0  0  0  0  0  0  0  0  0  0  0  0
    1.6619   -1.5813   -0.6704 C   0  0  0  0  0  0  0  0  0  0  0  0
    2.6691   -2.2941   -0.9429 O   0  0  0  0  0  0  0  0  0  0  0  0
    0.4469   -2.1867   -0.4370 N   0  0  0  0  0  0  0  0  0  0  0  0
    0.2892   -3.6427   -0.5528 C   0  0  0  0  0  0  0  0  0  0  0  0
   -3.4061    3.4666   -3.5007 H   0  0  0  0  0  0  0  0  0  0  0  0
   -2.9108    5.1486   -3.0965 H   0  0  0  0  0  0  0  0  0  0  0  0
   -1.6539    3.9161   -3.4692 H   0  0  0  0  0  0  0  0  0  0  0  0
   -1.9487    4.8202    0.1921 H   0  0  0  0  0  0  0  0  0  0  0  0
   -3.0935    5.6861   -0.8861 H   0  0  0  0  0  0  0  0  0  0  0  0
   -3.7027    4.3644    0.1652 H   0  0  0  0  0  0  0  0  0  0  0  0
   -2.0453    1.7026   -2.0419 H   0  0  0  0  0  0  0  0  0  0  0  0
   -3.1046    2.0206    0.6902 H   0  0  0  0  0  0  0  0  0  0  0  0
   -1.3883    2.4828    0.7539 H   0  0  0  0  0  0  0  0  0  0  0  0
   -3.6691   -0.0076    2.4730 H   0  0  0  0  0  0  0  0  0  0  0  0
   -4.8952    0.9664    1.5811 H   0  0  0  0  0  0  0  0  0  0  0  0
   -5.6824   -0.8284    3.3757 H   0  0  0  0  0  0  0  0  0  0  0  0
   -6.5811   -0.6683    1.8288 H   0  0  0  0  0  0  0  0  0  0  0  0
   -6.1107   -3.0722    2.4072 H   0  0  0  0  0  0  0  0  0  0  0  0
   -4.3585   -2.7192    2.4245 H   0  0  0  0  0  0  0  0  0  0  0  0
   -4.4401   -3.4528    0.2602 H   0  0  0  0  0  0  0  0  0  0  0  0
   -6.3960   -3.4445   -1.0957 H   0  0  0  0  0  0  0  0  0  0  0  0
   -7.2542   -2.5308    0.0340 H   0  0  0  0  0  0  0  0  0  0  0  0
   -5.7494   -0.8339   -0.6363 H   0  0  0  0  0  0  0  0  0  0  0  0
   -4.3461   -1.6999   -1.3256 H   0  0  0  0  0  0  0  0  0  0  0  0
    3.6297   -0.1040   -1.6705 H   0  0  0  0  0  0  0  0  0  0  0  0
    3.0048    1.4676   -1.1943 H   0  0  0  0  0  0  0  0  0  0  0  0
    6.2707   -0.3553    2.2798 H   0  0  0  0  0  0  0  0  0  0  0  0
    5.6635    1.3357    2.1826 H   0  0  0  0  0  0  0  0  0  0  0  0
    8.1581    1.2220    2.0408 H   0  0  0  0  0  0  0  0  0  0  0  0
    7.3862    1.9884    0.6175 H   0  0  0  0  0  0  0  0  0  0  0  0
    8.6309    0.5884   -0.6767 H   0  0  0  0  0  0  0  0  0  0  0  0
    9.1351   -0.3944    0.7301 H   0  0  0  0  0  0  0  0  0  0  0  0
    7.2801   -1.8839    0.5344 H   0  0  0  0  0  0  0  0  0  0  0  0
    7.8356   -1.6150   -1.1508 H   0  0  0  0  0  0  0  0  0  0  0  0
    6.0221   -0.0042   -1.5605 H   0  0  0  0  0  0  0  0  0  0  0  0
    5.3389   -1.5318   -0.8741 H   0  0  0  0  0  0  0  0  0  0  0  0
    0.1701   -3.9199   -1.6213 H   0  0  0  0  0  0  0  0  0  0  0  0
   -0.5965   -4.0006    0.0145 H   0  0  0  0  0  0  0  0  0  0  0  0
    1.1749   -4.1671   -0.1347 H   0  0  0  0  0  0  0  0  0  0  0  0
  1  2  1  0
  2  3  1  0
  2  4  2  3
  4  5  1  0
  5  6  1  0
  6  7  1  0
  7  8  1  0
  8  9  1  0
  9 10  1  0
 10 11  1  0
 11 12  1  0
 12 13  1  0
 12 14  1  0
  7 15  2  0
 15 16  1  0
 16 17  2  0
 17 18  1  0
 18 19  2  0
 18 20  1  0
 20 21  1  0
 21 22  1  0
 22 23  2  0
 22 24  1  0
 24 25  1  0
 25 26  1  0
 26 27  1  0
 27 28  1  0
 28 29  1  0
 20 30  1  0
 30 31  2  0
 30 32  1  0
 32 33  1  0
 17  6  1  0
 29 24  1  0
 14  8  1  0
 32 16  1  0
  1 34  1  0
  1 35  1  0
  1 36  1  0
  3 37  1  0
  3 38  1  0
  3 39  1  0
  4 40  1  0
  5 41  1  0
  5 42  1  0
  9 43  1  0
  9 44  1  0
 10 45  1  0
 10 46  1  0
 11 47  1  0
 11 48  1  0
 12 49  1  0
 13 50  1  0
 13 51  1  0
 14 52  1  0
 14 53  1  0
 21 54  1  0
 21 55  1  0
 25 56  1  0
 25 57  1  0
 26 58  1  0
 26 59  1  0
 27 60  1  0
 27 61  1  0
 28 62  1  0
 28 63  1  0
 29 64  1  0
 29 65  1  0
 33 66  1  0
 33 67  1  0
 33 68  1  0
M  END
$$$$
