
     RDKit          3D

 49 52  0  0  0  0  0  0  0  0999 V2000
    0.2232   -0.0314   -2.8136 N   0  0  0  0  0  0  0  0  0  0  0  0
    0.3387    0.0750   -1.3526 C   0  0  2  0  0  0  0  0  0  0  0  0
    1.2325   -1.0444   -0.8385 C   0  0  0  0  0  0  0  0  0  0  0  0
    1.0635   -2.2109   -1.2886 O   0  0  0  0  0  0  0  0  0  0  0  0
    2.2478   -0.8224    0.1633 N   0  0  0  0  0  0  0  0  0  0  0  0
    2.8572   -1.9243    0.8924 C   0  0  0  0  0  0  0  0  0  0  0  0
    3.9262   -1.3000    1.7796 C   0  0  0  0  0  0  0  0  0  0  0  0
    3.6044    0.1902    1.8264 C   0  0  0  0  0  0  0  0  0  0  0  0
    2.7764    0.4746    0.5715 C   0  0  1  0  0  0  0  0  0  0  0  0
    3.6761    1.1007   -0.6018 B   0  0  0  0  0  0  0  0  0  0  0  0
    4.7790    0.3312   -1.1737 O   0  0  0  0  0  0  0  0  0  0  0  0
    3.3749    2.4326   -1.1198 O   0  0  0  0  0  0  0  0  0  0  0  0
   -1.0764    0.0734   -0.6660 C   0  0  0  0  0  0  0  0  0  0  0  0
   -0.9293    0.1267    0.8873 C   0  0  0  0  0  0  0  0  0  0  0  0
   -2.3150    0.1496    1.5662 C   0  0  0  0  0  0  0  0  0  0  0  0
   -3.1024   -1.1186    1.1753 C   0  0  0  0  0  0  0  0  0  0  0  0
   -3.2864   -1.1601   -0.3562 C   0  0  0  0  0  0  0  0  0  0  0  0
   -4.0617    0.0921   -0.8156 C   0  0  0  0  0  0  0  0  0  0  0  0
   -3.2734    1.3621   -0.4237 C   0  0  0  0  0  0  0  0  0  0  0  0
   -4.1739    2.8122   -0.9541 Cl  0  0  0  0  0  0  0  0  0  0  0  0
   -3.0895    1.4015    1.1088 C   0  0  0  0  0  0  0  0  0  0  0  0
   -1.8877    1.3320   -1.1090 C   0  0  0  0  0  0  0  0  0  0  0  0
   -1.9019   -1.1956   -1.0409 C   0  0  0  0  0  0  0  0  0  0  0  0
   -0.0923    0.8885   -3.1958 H   0  0  0  0  0  0  0  0  0  0  0  0
    1.1784   -0.1699   -3.2189 H   0  0  0  0  0  0  0  0  0  0  0  0
    0.8198    1.0495   -1.1284 H   0  0  0  0  0  0  0  0  0  0  0  0
    3.3137   -2.6524    0.1871 H   0  0  0  0  0  0  0  0  0  0  0  0
    2.0856   -2.4308    1.5121 H   0  0  0  0  0  0  0  0  0  0  0  0
    3.9225   -1.7476    2.7972 H   0  0  0  0  0  0  0  0  0  0  0  0
    4.9276   -1.4474    1.3187 H   0  0  0  0  0  0  0  0  0  0  0  0
    2.9812    0.3931    2.7256 H   0  0  0  0  0  0  0  0  0  0  0  0
    4.5296    0.8045    1.9017 H   0  0  0  0  0  0  0  0  0  0  0  0
    1.9571    1.1751    0.8327 H   0  0  0  0  0  0  0  0  0  0  0  0
    5.5673    0.5774   -0.6269 H   0  0  0  0  0  0  0  0  0  0  0  0
    3.9139    3.0463   -0.5597 H   0  0  0  0  0  0  0  0  0  0  0  0
   -0.3631    1.0345    1.1881 H   0  0  0  0  0  0  0  0  0  0  0  0
   -0.3671   -0.7558    1.2627 H   0  0  0  0  0  0  0  0  0  0  0  0
   -2.1857    0.1786    2.6701 H   0  0  0  0  0  0  0  0  0  0  0  0
   -4.0949   -1.1190    1.6774 H   0  0  0  0  0  0  0  0  0  0  0  0
   -2.5574   -2.0255    1.5183 H   0  0  0  0  0  0  0  0  0  0  0  0
   -3.8595   -2.0714   -0.6342 H   0  0  0  0  0  0  0  0  0  0  0  0
   -5.0686    0.1049   -0.3427 H   0  0  0  0  0  0  0  0  0  0  0  0
   -4.2127    0.0578   -1.9173 H   0  0  0  0  0  0  0  0  0  0  0  0
   -2.5332    2.3182    1.4054 H   0  0  0  0  0  0  0  0  0  0  0  0
   -4.0805    1.4357    1.6134 H   0  0  0  0  0  0  0  0  0  0  0  0
   -1.3243    2.2576   -0.8551 H   0  0  0  0  0  0  0  0  0  0  0  0
   -2.0457    1.3298   -2.2085 H   0  0  0  0  0  0  0  0  0  0  0  0
   -1.3752   -2.1180   -0.7176 H   0  0  0  0  0  0  0  0  0  0  0  0
   -2.0390   -1.2596   -2.1426 H   0  0  0  0  0  0  0  0  0  0  0  0
  1  2  1  0
  2  3  1  0
  3  4  2  0
  3  5  1  0
  5  6  1  0
  6  7  1  0
  7  8  1  0
  8  9  1  0
  9 10  1  0
 10 11  1  0
 10 12  1  0
  2 13  1  0
 13 14  1  0
 14 15  1  0
 15 16  1  0
 16 17  1  0
 17 18  1  0
 18 19  1  0
 19 20  1  0
 19 21  1  0
 19 22  1  0
 17 23  1  0
  9  5  1  0
 22 13  1  0
 23 13  1  0
 21 15  1  0
  1 24  1  0
  1 25  1  0
  2 26  1  6
  6 27  1  0
  6 28  1  0
  7 29  1  0
  7 30  1  0
  8 31  1  0
  8 32  1  0
  9 33  1  1
 11 34  1  0
 12 35  1  0
 14 36  1  0
 14 37  1  0
 15 38  1  0
 16 39  1  0
 16 40  1  0
 17 41  1  0
 18 42  1  0
 18 43  1  0
 21 44  1  0
 21 45  1  0
 22 46  1  0
 22 47  1  0
 23 48  1  0
 23 49  1  0
M  END
$$$$
