
     RDKit          3D

 60 62  0  0  0  0  0  0  0  0999 V2000
    7.2967    1.2508   -1.2294 C   0  0  0  0  0  0  0  0  0  0  0  0
    5.8648    0.4432   -0.5404 S   0  0  0  0  0  0  0  0  0  0  0  0
    5.5222   -0.7091   -1.4429 O   0  0  0  0  0  0  0  0  0  0  0  0
    6.2166   -0.0749    0.8256 O   0  0  0  0  0  0  0  0  0  0  0  0
    4.4716    1.5377   -0.4172 C   0  0  0  0  0  0  0  0  0  0  0  0
    4.6926    2.9246   -0.4900 C   0  0  0  0  0  0  0  0  0  0  0  0
    3.6233    3.8202   -0.4702 C   0  0  0  0  0  0  0  0  0  0  0  0
    2.3173    3.3468   -0.3778 C   0  0  0  0  0  0  0  0  0  0  0  0
    2.0757    1.9763   -0.2882 C   0  0  0  0  0  0  0  0  0  0  0  0
    3.1399    1.0550   -0.2901 C   0  0  0  0  0  0  0  0  0  0  0  0
    2.8247   -0.3860   -0.1377 C   0  0  0  0  0  0  0  0  0  0  0  0
    3.5285   -1.1048    0.6221 O   0  0  0  0  0  0  0  0  0  0  0  0
    1.7076   -0.9621   -0.8330 N   0  0  0  0  0  0  0  0  0  0  0  0
    1.4175   -2.3945   -0.8077 C   0  0  0  0  0  0  0  0  0  0  0  0
    0.8240   -2.8482    0.5444 C   0  0  2  0  0  0  0  0  0  0  0  0
    0.7558   -4.3813    0.6104 C   0  0  0  0  0  0  0  0  0  0  0  0
   -0.6544   -4.7355    1.0688 C   0  0  0  0  0  0  0  0  0  0  0  0
   -1.4943   -3.4830    0.8756 C   0  0  0  0  0  0  0  0  0  0  0  0
   -0.5526   -2.3869    0.7093 N   0  0  0  0  0  0  0  0  0  0  0  0
   -0.9034   -1.0187    0.9982 C   0  0  0  0  0  0  0  0  0  0  0  0
   -0.0132   -0.2088    1.3711 O   0  0  0  0  0  0  0  0  0  0  0  0
   -2.3201   -0.5256    0.8613 C   0  0  0  0  0  0  0  0  0  0  0  0
   -2.7258   -0.3549   -0.6204 C   0  0  2  0  0  0  0  0  0  0  0  0
   -1.9890    0.7379   -1.2642 N   0  0  0  0  0  0  0  0  0  0  0  0
   -4.2465   -0.1455   -0.7868 C   0  0  0  0  0  0  0  0  0  0  0  0
   -4.7579    1.1191   -0.1334 C   0  0  0  0  0  0  0  0  0  0  0  0
   -4.7127    2.3375   -0.8339 C   0  0  0  0  0  0  0  0  0  0  0  0
   -5.1653    3.5159   -0.2339 C   0  0  0  0  0  0  0  0  0  0  0  0
   -5.6693    3.4896    1.0683 C   0  0  0  0  0  0  0  0  0  0  0  0
   -5.7240    2.2842    1.7722 C   0  0  0  0  0  0  0  0  0  0  0  0
   -5.2725    1.1010    1.1780 C   0  0  0  0  0  0  0  0  0  0  0  0
   -5.3431   -0.0581    1.8803 F   0  0  0  0  0  0  0  0  0  0  0  0
    7.0213    1.7553   -2.1785 H   0  0  0  0  0  0  0  0  0  0  0  0
    7.6928    1.9961   -0.5092 H   0  0  0  0  0  0  0  0  0  0  0  0
    8.0836    0.4955   -1.4332 H   0  0  0  0  0  0  0  0  0  0  0  0
    5.6934    3.3241   -0.5700 H   0  0  0  0  0  0  0  0  0  0  0  0
    3.8085    4.8849   -0.5323 H   0  0  0  0  0  0  0  0  0  0  0  0
    1.4893    4.0438   -0.3660 H   0  0  0  0  0  0  0  0  0  0  0  0
    1.0518    1.6394   -0.1953 H   0  0  0  0  0  0  0  0  0  0  0  0
    1.1869   -0.3747   -1.5209 H   0  0  0  0  0  0  0  0  0  0  0  0
    0.6994   -2.6369   -1.6223 H   0  0  0  0  0  0  0  0  0  0  0  0
    2.3573   -2.9523   -1.0153 H   0  0  0  0  0  0  0  0  0  0  0  0
    1.4440   -2.4786    1.3901 H   0  0  0  0  0  0  0  0  0  0  0  0
    1.5125   -4.7804    1.3210 H   0  0  0  0  0  0  0  0  0  0  0  0
    0.9345   -4.8482   -0.3843 H   0  0  0  0  0  0  0  0  0  0  0  0
   -1.0673   -5.5881    0.4867 H   0  0  0  0  0  0  0  0  0  0  0  0
   -0.6348   -5.0108    2.1466 H   0  0  0  0  0  0  0  0  0  0  0  0
   -2.1309   -3.3267    1.7732 H   0  0  0  0  0  0  0  0  0  0  0  0
   -2.1310   -3.5687   -0.0310 H   0  0  0  0  0  0  0  0  0  0  0  0
   -3.0062   -1.2414    1.3577 H   0  0  0  0  0  0  0  0  0  0  0  0
   -2.4278    0.4416    1.3992 H   0  0  0  0  0  0  0  0  0  0  0  0
   -2.4828   -1.3002   -1.1567 H   0  0  0  0  0  0  0  0  0  0  0  0
   -0.9976    0.4401   -1.3992 H   0  0  0  0  0  0  0  0  0  0  0  0
   -1.9748    1.5757   -0.6382 H   0  0  0  0  0  0  0  0  0  0  0  0
   -4.7857   -1.0295   -0.3816 H   0  0  0  0  0  0  0  0  0  0  0  0
   -4.4857   -0.1175   -1.8727 H   0  0  0  0  0  0  0  0  0  0  0  0
   -4.3234    2.3747   -1.8439 H   0  0  0  0  0  0  0  0  0  0  0  0
   -5.1246    4.4501   -0.7788 H   0  0  0  0  0  0  0  0  0  0  0  0
   -6.0193    4.4030    1.5315 H   0  0  0  0  0  0  0  0  0  0  0  0
   -6.1180    2.2673    2.7802 H   0  0  0  0  0  0  0  0  0  0  0  0
  1  2  1  0
  2  3  2  0
  2  4  2  0
  2  5  1  0
  5  6  2  0
  6  7  1  0
  7  8  2  0
  8  9  1  0
  9 10  2  0
 10 11  1  0
 11 12  2  0
 11 13  1  0
 13 14  1  0
 14 15  1  0
 15 16  1  0
 16 17  1  0
 17 18  1  0
 18 19  1  0
 19 20  1  0
 20 21  2  0
 20 22  1  0
 22 23  1  0
 23 24  1  0
 23 25  1  0
 25 26  1  0
 26 27  2  0
 27 28  1  0
 28 29  2  0
 29 30  1  0
 30 31  2  0
 31 32  1  0
 10  5  1  0
 19 15  1  0
 31 26  1  0
  1 33  1  0
  1 34  1  0
  1 35  1  0
  6 36  1  0
  7 37  1  0
  8 38  1  0
  9 39  1  0
 13 40  1  0
 14 41  1  0
 14 42  1  0
 15 43  1  1
 16 44  1  0
 16 45  1  0
 17 46  1  0
 17 47  1  0
 18 48  1  0
 18 49  1  0
 22 50  1  0
 22 51  1  0
 23 52  1  6
 24 53  1  0
 24 54  1  0
 25 55  1  0
 25 56  1  0
 27 57  1  0
 28 58  1  0
 29 59  1  0
 30 60  1  0
M  END
$$$$
