
     RDKit          3D

 44 46  0  0  0  0  0  0  0  0999 V2000
    7.7143    0.8784    4.0601 N   0  0  0  0  0  0  0  0  0  0  0  0
    7.0164    1.0083    3.1462 C   0  0  0  0  0  0  0  0  0  0  0  0
    6.1482    1.1698    2.0094 C   0  0  0  0  0  0  0  0  0  0  0  0
    4.8943    1.7740    2.1640 C   0  0  0  0  0  0  0  0  0  0  0  0
    4.0497    1.9294    1.0605 C   0  0  0  0  0  0  0  0  0  0  0  0
    4.4563    1.4902   -0.2102 C   0  0  0  0  0  0  0  0  0  0  0  0
    3.5322    1.6212   -1.3887 C   0  0  0  0  0  0  0  0  0  0  0  0
    2.6507    0.4187   -1.4826 C   0  0  0  0  0  0  0  0  0  0  0  0
    1.4857    0.2944   -0.8118 N   0  0  0  0  0  0  0  0  0  0  0  0
    0.9060   -0.9223   -1.0080 C   0  0  0  0  0  0  0  0  0  0  0  0
   -0.3856   -1.2564   -0.3747 C   0  0  0  0  0  0  0  0  0  0  0  0
   -1.0003   -0.3550    0.2574 O   0  0  0  0  0  0  0  0  0  0  0  0
   -0.9482   -2.5768   -0.4583 N   0  0  0  0  0  0  0  0  0  0  0  0
   -2.2738   -2.8925    0.0700 C   0  0  0  0  0  0  0  0  0  0  0  0
   -3.3358   -2.2470   -0.7777 C   0  0  0  0  0  0  0  0  0  0  0  0
   -3.4159   -2.5795   -1.9915 O   0  0  0  0  0  0  0  0  0  0  0  0
   -4.2471   -1.2619   -0.2491 N   0  0  0  0  0  0  0  0  0  0  0  0
   -4.3661   -0.9228    1.1616 C   0  0  0  0  0  0  0  0  0  0  0  0
   -5.4381    0.1602    1.2372 C   0  0  0  0  0  0  0  0  0  0  0  0
   -4.8441    1.4067    1.3530 F   0  0  0  0  0  0  0  0  0  0  0  0
   -6.2817   -0.0491    2.3154 F   0  0  0  0  0  0  0  0  0  0  0  0
   -6.2038    0.0747   -0.0817 C   0  0  0  0  0  0  0  0  0  0  0  0
   -5.2453   -0.5901   -1.0697 C   0  0  1  0  0  0  0  0  0  0  0  0
   -4.5921    0.4080   -1.9324 C   0  0  0  0  0  0  0  0  0  0  0  0
   -4.0773    1.1920   -2.6102 N   0  0  0  0  0  0  0  0  0  0  0  0
    1.6259   -1.7822   -1.8414 C   0  0  0  0  0  0  0  0  0  0  0  0
    3.0236   -0.9836   -2.3279 S   0  0  0  0  0  0  0  0  0  0  0  0
    5.7092    0.8728   -0.3570 C   0  0  0  0  0  0  0  0  0  0  0  0
    6.5529    0.7179    0.7472 C   0  0  0  0  0  0  0  0  0  0  0  0
    4.5683    2.1211    3.1372 H   0  0  0  0  0  0  0  0  0  0  0  0
    3.0785    2.3890    1.1962 H   0  0  0  0  0  0  0  0  0  0  0  0
    2.9046    2.5330   -1.2863 H   0  0  0  0  0  0  0  0  0  0  0  0
    4.1161    1.7294   -2.3283 H   0  0  0  0  0  0  0  0  0  0  0  0
   -0.3980   -3.3574   -0.8779 H   0  0  0  0  0  0  0  0  0  0  0  0
   -2.3311   -2.5863    1.1335 H   0  0  0  0  0  0  0  0  0  0  0  0
   -2.4270   -3.9927    0.0414 H   0  0  0  0  0  0  0  0  0  0  0  0
   -3.4007   -0.5397    1.5555 H   0  0  0  0  0  0  0  0  0  0  0  0
   -4.6774   -1.8238    1.7337 H   0  0  0  0  0  0  0  0  0  0  0  0
   -6.5580    1.0749   -0.4183 H   0  0  0  0  0  0  0  0  0  0  0  0
   -7.0930   -0.5805    0.0526 H   0  0  0  0  0  0  0  0  0  0  0  0
   -5.7935   -1.3251   -1.6988 H   0  0  0  0  0  0  0  0  0  0  0  0
    1.3524   -2.7834   -2.1414 H   0  0  0  0  0  0  0  0  0  0  0  0
    6.0307    0.5095   -1.3254 H   0  0  0  0  0  0  0  0  0  0  0  0
    7.5181    0.2430    0.6175 H   0  0  0  0  0  0  0  0  0  0  0  0
  1  2  3  0
  2  3  1  0
  3  4  2  0
  4  5  1  0
  5  6  2  0
  6  7  1  0
  7  8  1  0
  8  9  2  0
  9 10  1  0
 10 11  1  0
 11 12  2  0
 11 13  1  0
 13 14  1  0
 14 15  1  0
 15 16  2  0
 15 17  1  0
 17 18  1  0
 18 19  1  0
 19 20  1  0
 19 21  1  0
 19 22  1  0
 22 23  1  0
 23 24  1  0
 24 25  3  0
 10 26  2  0
 26 27  1  0
  6 28  1  0
 28 29  2  0
 29  3  1  0
 27  8  1  0
 23 17  1  0
  4 30  1  0
  5 31  1  0
  7 32  1  0
  7 33  1  0
 13 34  1  0
 14 35  1  0
 14 36  1  0
 18 37  1  0
 18 38  1  0
 22 39  1  0
 22 40  1  0
 23 41  1  6
 26 42  1  0
 28 43  1  0
 29 44  1  0
M  END
$$$$
