
     RDKit          3D

 77 79  0  0  0  0  0  0  0  0999 V2000
    7.9709   -1.8660   -0.2958 C   0  0  0  0  0  0  0  0  0  0  0  0
    7.6464   -0.7970   -1.1786 O   0  0  0  0  0  0  0  0  0  0  0  0
    6.5982    0.1125   -0.9713 C   0  0  0  0  0  0  0  0  0  0  0  0
    5.7586    0.0504    0.1564 C   0  0  0  0  0  0  0  0  0  0  0  0
    4.7238    0.9829    0.3232 C   0  0  0  0  0  0  0  0  0  0  0  0
    3.7997    0.8942    1.5065 C   0  0  0  0  0  0  0  0  0  0  0  0
    2.5433    0.2625    1.1130 N   0  0  0  0  0  0  0  0  0  0  0  0
    1.2530    0.9357    1.0120 C   0  0  0  0  0  0  0  0  0  0  0  0
    0.2471   -0.1625    0.5579 C   0  0  0  0  0  0  0  0  0  0  0  0
   -0.9127   -0.3628    1.5421 C   0  0  0  0  0  0  0  0  0  0  0  0
   -1.6741   -1.5834    1.2230 N   0  0  0  0  0  0  0  0  0  0  0  0
   -3.0176   -1.6966    1.7306 C   0  0  0  0  0  0  0  0  0  0  0  0
   -3.2981   -1.1995    2.8553 O   0  0  0  0  0  0  0  0  0  0  0  0
   -4.1274   -2.3194    0.9182 C   0  0  0  0  0  0  0  0  0  0  0  0
   -4.8368   -1.3137   -0.0206 C   0  0  2  0  0  0  0  0  0  0  0  0
   -3.9418   -0.8272   -1.0753 N   0  0  0  0  0  0  0  0  0  0  0  0
   -5.4577   -0.1312    0.7516 C   0  0  0  0  0  0  0  0  0  0  0  0
   -6.3297    0.7131   -0.1450 C   0  0  0  0  0  0  0  0  0  0  0  0
   -7.6602    0.3303   -0.3865 C   0  0  0  0  0  0  0  0  0  0  0  0
   -8.4707    1.0880   -1.2375 C   0  0  0  0  0  0  0  0  0  0  0  0
   -9.7541    0.7114   -1.4606 F   0  0  0  0  0  0  0  0  0  0  0  0
   -7.9573    2.2297   -1.8600 C   0  0  0  0  0  0  0  0  0  0  0  0
   -8.7418    2.9647   -2.6866 F   0  0  0  0  0  0  0  0  0  0  0  0
   -6.6323    2.6124   -1.6341 C   0  0  0  0  0  0  0  0  0  0  0  0
   -5.8167    1.8584   -0.7839 C   0  0  0  0  0  0  0  0  0  0  0  0
   -4.5305    2.2447   -0.5871 F   0  0  0  0  0  0  0  0  0  0  0  0
   -1.1080   -2.6357    0.3576 C   0  0  0  0  0  0  0  0  0  0  0  0
    0.4173   -2.7285    0.5031 C   0  0  0  0  0  0  0  0  0  0  0  0
    1.0173   -1.3981    0.4687 N   0  0  0  0  0  0  0  0  0  0  0  0
    2.3540   -1.1040    0.8112 C   0  0  0  0  0  0  0  0  0  0  0  0
    3.2663   -1.9707    0.8765 O   0  0  0  0  0  0  0  0  0  0  0  0
    4.5196    1.9703   -0.6513 C   0  0  0  0  0  0  0  0  0  0  0  0
    5.3465    2.0455   -1.7765 C   0  0  0  0  0  0  0  0  0  0  0  0
    5.0995    3.0570   -2.7168 O   0  0  0  0  0  0  0  0  0  0  0  0
    5.8566    3.2515   -3.9069 C   0  0  0  0  0  0  0  0  0  0  0  0
    6.3884    1.1115   -1.9288 C   0  0  0  0  0  0  0  0  0  0  0  0
   -2.6389   -1.5131    0.5308 O   0  0  0  0  0  0  0  0  0  0  0  0
   -1.8964   -0.5821    0.1203 C   0  0  0  0  0  0  0  0  0  0  0  0
   -2.4618    0.5259   -0.5061 O   0  0  0  0  0  0  0  0  0  0  0  0
   -0.4411   -0.6808    0.3099 C   0  0  0  0  0  0  0  0  0  0  0  0
    0.3945    0.2778   -0.1060 C   0  0  0  0  0  0  0  0  0  0  0  0
    1.8519    0.1872    0.0796 C   0  0  0  0  0  0  0  0  0  0  0  0
    2.3742   -0.8116    0.6454 O   0  0  0  0  0  0  0  0  0  0  0  0
    2.6612    1.2217   -0.3780 O   0  0  0  0  0  0  0  0  0  0  0  0
    8.8378   -2.4238   -0.7052 H   0  0  0  0  0  0  0  0  0  0  0  0
    8.2450   -1.4664    0.7034 H   0  0  0  0  0  0  0  0  0  0  0  0
    7.1102   -2.5622   -0.2066 H   0  0  0  0  0  0  0  0  0  0  0  0
    5.9013   -0.7184    0.9039 H   0  0  0  0  0  0  0  0  0  0  0  0
    3.6007    1.9172    1.8941 H   0  0  0  0  0  0  0  0  0  0  0  0
    4.2623    0.3162    2.3357 H   0  0  0  0  0  0  0  0  0  0  0  0
    0.9809    1.3736    1.9969 H   0  0  0  0  0  0  0  0  0  0  0  0
    1.3110    1.7455    0.2533 H   0  0  0  0  0  0  0  0  0  0  0  0
   -0.1582    0.0865   -0.4480 H   0  0  0  0  0  0  0  0  0  0  0  0
   -1.5794    0.5258    1.4818 H   0  0  0  0  0  0  0  0  0  0  0  0
   -0.5260   -0.4450    2.5814 H   0  0  0  0  0  0  0  0  0  0  0  0
   -3.7488   -3.1712    0.3181 H   0  0  0  0  0  0  0  0  0  0  0  0
   -4.8798   -2.7494    1.6152 H   0  0  0  0  0  0  0  0  0  0  0  0
   -5.6680   -1.8694   -0.5106 H   0  0  0  0  0  0  0  0  0  0  0  0
   -3.1346   -0.3169   -0.6507 H   0  0  0  0  0  0  0  0  0  0  0  0
   -3.5635   -1.6453   -1.6055 H   0  0  0  0  0  0  0  0  0  0  0  0
   -6.0729   -0.5207    1.5925 H   0  0  0  0  0  0  0  0  0  0  0  0
   -4.6587    0.4948    1.2043 H   0  0  0  0  0  0  0  0  0  0  0  0
   -8.0672   -0.5564    0.0839 H   0  0  0  0  0  0  0  0  0  0  0  0
   -6.2352    3.4939   -2.1211 H   0  0  0  0  0  0  0  0  0  0  0  0
   -1.3660   -2.4162   -0.7001 H   0  0  0  0  0  0  0  0  0  0  0  0
   -1.5312   -3.6271    0.6276 H   0  0  0  0  0  0  0  0  0  0  0  0
    0.6634   -3.2153    1.4718 H   0  0  0  0  0  0  0  0  0  0  0  0
    0.8334   -3.3454   -0.3216 H   0  0  0  0  0  0  0  0  0  0  0  0
    3.7127    2.6842   -0.5374 H   0  0  0  0  0  0  0  0  0  0  0  0
    6.9172    3.4632   -3.6544 H   0  0  0  0  0  0  0  0  0  0  0  0
    5.7894    2.3513   -4.5537 H   0  0  0  0  0  0  0  0  0  0  0  0
    5.4437    4.1189   -4.4614 H   0  0  0  0  0  0  0  0  0  0  0  0
    7.0413    1.1478   -2.7904 H   0  0  0  0  0  0  0  0  0  0  0  0
   -3.4640    0.5941   -0.6368 H   0  0  0  0  0  0  0  0  0  0  0  0
   -0.0521   -1.5639    0.8032 H   0  0  0  0  0  0  0  0  0  0  0  0
    0.0055    1.1603   -0.5991 H   0  0  0  0  0  0  0  0  0  0  0  0
    3.6670    1.1846   -0.2631 H   0  0  0  0  0  0  0  0  0  0  0  0
  1  2  1  0
  2  3  1  0
  3  4  2  0
  4  5  1  0
  5  6  1  0
  6  7  1  0
  7  8  1  0
  8  9  1  0
  9 10  1  0
 10 11  1  0
 11 12  1  0
 12 13  2  0
 12 14  1  0
 14 15  1  0
 15 16  1  0
 15 17  1  0
 17 18  1  0
 18 19  2  0
 19 20  1  0
 20 21  1  0
 20 22  2  0
 22 23  1  0
 22 24  1  0
 24 25  2  0
 25 26  1  0
 11 27  1  0
 27 28  1  0
 28 29  1  0
 29 30  1  0
 30 31  2  0
  5 32  2  0
 32 33  1  0
 33 34  1  0
 34 35  1  0
 33 36  2  0
 37 38  2  0
 38 39  1  0
 38 40  1  0
 40 41  2  0
 41 42  1  0
 42 43  2  0
 42 44  1  0
 36  3  1  0
 30  7  1  0
 29  9  1  0
 25 18  1  0
  1 45  1  0
  1 46  1  0
  1 47  1  0
  4 48  1  0
  6 49  1  0
  6 50  1  0
  8 51  1  0
  8 52  1  0
  9 53  1  0
 10 54  1  0
 10 55  1  0
 14 56  1  0
 14 57  1  0
 15 58  1  6
 16 59  1  0
 16 60  1  0
 17 61  1  0
 17 62  1  0
 19 63  1  0
 24 64  1  0
 27 65  1  0
 27 66  1  0
 28 67  1  0
 28 68  1  0
 32 69  1  0
 35 70  1  0
 35 71  1  0
 35 72  1  0
 36 73  1  0
 39 74  1  0
 40 75  1  0
 41 76  1  0
 44 77  1  0
M  END
$$$$
