
     RDKit          3D

 80 84  0  0  0  0  0  0  0  0999 V2000
   -4.5748    4.9708    1.9147 C   0  0  0  0  0  0  0  0  0  0  0  0
   -4.3218    4.0196    0.8331 C   0  0  0  0  0  0  0  0  0  0  0  0
   -4.1153    3.2335   -0.0567 C   0  0  0  0  0  0  0  0  0  0  0  0
   -3.8694    2.2718   -1.1347 C   0  0  0  0  0  0  0  0  0  0  0  0
   -3.9420    0.9055   -0.6128 N   0  0  0  0  0  0  0  0  0  0  0  0
   -4.9942    0.0421   -0.6656 C   0  0  0  0  0  0  0  0  0  0  0  0
   -6.2963    0.3831   -1.1717 N   0  0  0  0  0  0  0  0  0  0  0  0
   -7.0210    1.5303   -0.6001 C   0  0  0  0  0  0  0  0  0  0  0  0
   -8.5410    1.3061   -0.6257 C   0  0  0  0  0  0  0  0  0  0  0  0
   -8.8769   -0.1340   -0.2176 C   0  0  0  0  0  0  0  0  0  0  0  0
   -8.1984   -1.1909   -1.1370 C   0  0  1  0  0  0  0  0  0  0  0  0
   -9.1701   -1.8182   -2.0356 N   0  0  0  0  0  0  0  0  0  0  0  0
   -7.0371   -0.6038   -1.9644 C   0  0  0  0  0  0  0  0  0  0  0  0
   -4.7176   -1.1853   -0.1539 N   0  0  0  0  0  0  0  0  0  0  0  0
   -3.4391   -1.0574    0.2483 C   0  0  0  0  0  0  0  0  0  0  0  0
   -2.9712    0.1864   -0.0142 C   0  0  0  0  0  0  0  0  0  0  0  0
   -1.6676    0.5300    0.3308 C   0  0  0  0  0  0  0  0  0  0  0  0
   -1.2259    1.6889    0.1009 O   0  0  0  0  0  0  0  0  0  0  0  0
   -0.8763   -0.4249    0.9298 N   0  0  0  0  0  0  0  0  0  0  0  0
    0.5235   -0.1072    1.2740 C   0  0  0  0  0  0  0  0  0  0  0  0
    1.4467   -0.4299    0.0920 C   0  0  0  0  0  0  0  0  0  0  0  0
    2.9101   -0.0883    0.3976 C   0  0  0  0  0  0  0  0  0  0  0  0
    3.4150   -0.9049    1.5260 N   0  0  0  0  0  0  0  0  0  0  0  0
    4.3574   -0.1719    2.3969 C   0  0  0  0  0  0  0  0  0  0  0  0
    5.7270    0.0187    1.7322 C   0  0  0  0  0  0  0  0  0  0  0  0
    6.3230   -1.3432    1.3531 C   0  0  0  0  0  0  0  0  0  0  0  0
    7.6439   -1.1660    0.6591 C   0  0  0  0  0  0  0  0  0  0  0  0
    8.6593   -1.7769    1.0908 O   0  0  0  0  0  0  0  0  0  0  0  0
    7.7140   -0.3868   -0.5043 O   0  0  0  0  0  0  0  0  0  0  0  0
    8.8944    0.0931   -1.0900 C   0  0  0  0  0  0  0  0  0  0  0  0
    8.9041    0.3335   -2.4702 C   0  0  0  0  0  0  0  0  0  0  0  0
   10.0551    0.8217   -3.0964 C   0  0  0  0  0  0  0  0  0  0  0  0
   11.2026    1.0853   -2.3440 C   0  0  0  0  0  0  0  0  0  0  0  0
   11.1975    0.8682   -0.9637 C   0  0  0  0  0  0  0  0  0  0  0  0
   10.0482    0.3788   -0.3344 C   0  0  0  0  0  0  0  0  0  0  0  0
    5.3483   -2.1217    0.4590 C   0  0  0  0  0  0  0  0  0  0  0  0
    3.9556   -2.2199    1.1098 C   0  0  0  0  0  0  0  0  0  0  0  0
   -1.3723   -1.6988    1.1568 C   0  0  0  0  0  0  0  0  0  0  0  0
   -0.6215   -2.5852    1.6547 O   0  0  0  0  0  0  0  0  0  0  0  0
   -2.6756   -2.0142    0.8415 N   0  0  0  0  0  0  0  0  0  0  0  0
   -3.2046   -3.3670    1.0621 C   0  0  0  0  0  0  0  0  0  0  0  0
   -3.8515    4.7960    2.7376 H   0  0  0  0  0  0  0  0  0  0  0  0
   -5.6079    4.8318    2.2947 H   0  0  0  0  0  0  0  0  0  0  0  0
   -4.4574    6.0057    1.5324 H   0  0  0  0  0  0  0  0  0  0  0  0
   -2.8741    2.4627   -1.5846 H   0  0  0  0  0  0  0  0  0  0  0  0
   -4.6133    2.4181   -1.9437 H   0  0  0  0  0  0  0  0  0  0  0  0
   -6.7831    2.4530   -1.1675 H   0  0  0  0  0  0  0  0  0  0  0  0
   -6.7095    1.6781    0.4579 H   0  0  0  0  0  0  0  0  0  0  0  0
   -8.9345    1.5029   -1.6470 H   0  0  0  0  0  0  0  0  0  0  0  0
   -9.0335    2.0180    0.0715 H   0  0  0  0  0  0  0  0  0  0  0  0
   -8.5321   -0.2894    0.8288 H   0  0  0  0  0  0  0  0  0  0  0  0
   -9.9813   -0.2618   -0.2112 H   0  0  0  0  0  0  0  0  0  0  0  0
   -7.7716   -1.9853   -0.4838 H   0  0  0  0  0  0  0  0  0  0  0  0
   -9.6894   -1.0728   -2.5552 H   0  0  0  0  0  0  0  0  0  0  0  0
   -9.8686   -2.3424   -1.4597 H   0  0  0  0  0  0  0  0  0  0  0  0
   -7.4341   -0.0983   -2.8720 H   0  0  0  0  0  0  0  0  0  0  0  0
   -6.3684   -1.4206   -2.3158 H   0  0  0  0  0  0  0  0  0  0  0  0
    0.8409   -0.6785    2.1737 H   0  0  0  0  0  0  0  0  0  0  0  0
    0.6259    0.9656    1.5498 H   0  0  0  0  0  0  0  0  0  0  0  0
    1.1229    0.1620   -0.7916 H   0  0  0  0  0  0  0  0  0  0  0  0
    1.3533   -1.5043   -0.1725 H   0  0  0  0  0  0  0  0  0  0  0  0
    2.9625    0.9993    0.6289 H   0  0  0  0  0  0  0  0  0  0  0  0
    3.5145   -0.2404   -0.5207 H   0  0  0  0  0  0  0  0  0  0  0  0
    3.9369    0.8179    2.6801 H   0  0  0  0  0  0  0  0  0  0  0  0
    4.4866   -0.7351    3.3474 H   0  0  0  0  0  0  0  0  0  0  0  0
    5.6162    0.6618    0.8314 H   0  0  0  0  0  0  0  0  0  0  0  0
    6.4057    0.5379    2.4437 H   0  0  0  0  0  0  0  0  0  0  0  0
    6.4865   -1.9269    2.2881 H   0  0  0  0  0  0  0  0  0  0  0  0
    8.0184    0.1334   -3.0598 H   0  0  0  0  0  0  0  0  0  0  0  0
   10.0566    0.9973   -4.1644 H   0  0  0  0  0  0  0  0  0  0  0  0
   12.0925    1.4654   -2.8290 H   0  0  0  0  0  0  0  0  0  0  0  0
   12.0819    1.0876   -0.3794 H   0  0  0  0  0  0  0  0  0  0  0  0
   10.0557    0.2550    0.7396 H   0  0  0  0  0  0  0  0  0  0  0  0
    5.2696   -1.6402   -0.5389 H   0  0  0  0  0  0  0  0  0  0  0  0
    5.7396   -3.1499    0.2973 H   0  0  0  0  0  0  0  0  0  0  0  0
    4.0227   -2.8776    2.0040 H   0  0  0  0  0  0  0  0  0  0  0  0
    3.2594   -2.7223    0.4052 H   0  0  0  0  0  0  0  0  0  0  0  0
   -2.9032   -4.0257    0.2207 H   0  0  0  0  0  0  0  0  0  0  0  0
   -2.8176   -3.7887    2.0143 H   0  0  0  0  0  0  0  0  0  0  0  0
   -4.3130   -3.3607    1.1377 H   0  0  0  0  0  0  0  0  0  0  0  0
  1  2  1  0
  2  3  3  0
  3  4  1  0
  4  5  1  0
  5  6  1  0
  6  7  1  0
  7  8  1  0
  8  9  1  0
  9 10  1  0
 10 11  1  0
 11 12  1  0
 11 13  1  0
  6 14  2  0
 14 15  1  0
 15 16  2  0
 16 17  1  0
 17 18  2  0
 17 19  1  0
 19 20  1  0
 20 21  1  0
 21 22  1  0
 22 23  1  0
 23 24  1  0
 24 25  1  0
 25 26  1  0
 26 27  1  0
 27 28  2  0
 27 29  1  0
 29 30  1  0
 30 31  2  0
 31 32  1  0
 32 33  2  0
 33 34  1  0
 34 35  2  0
 26 36  1  0
 36 37  1  0
 19 38  1  0
 38 39  2  0
 38 40  1  0
 40 41  1  0
 16  5  1  0
 37 23  1  0
 13  7  1  0
 40 15  1  0
 35 30  1  0
  1 42  1  0
  1 43  1  0
  1 44  1  0
  4 45  1  0
  4 46  1  0
  8 47  1  0
  8 48  1  0
  9 49  1  0
  9 50  1  0
 10 51  1  0
 10 52  1  0
 11 53  1  1
 12 54  1  0
 12 55  1  0
 13 56  1  0
 13 57  1  0
 20 58  1  0
 20 59  1  0
 21 60  1  0
 21 61  1  0
 22 62  1  0
 22 63  1  0
 24 64  1  0
 24 65  1  0
 25 66  1  0
 25 67  1  0
 26 68  1  0
 31 69  1  0
 32 70  1  0
 33 71  1  0
 34 72  1  0
 35 73  1  0
 36 74  1  0
 36 75  1  0
 37 76  1  0
 37 77  1  0
 41 78  1  0
 41 79  1  0
 41 80  1  0
M  END
$$$$
