
     RDKit          3D

 60 64  0  0  0  0  0  0  0  0999 V2000
   -5.1669   -4.3523    1.0452 C   0  0  0  0  0  0  0  0  0  0  0  0
   -4.6939   -2.9753    0.7208 C   0  0  0  0  0  0  0  0  0  0  0  0
   -3.4197   -2.4871    0.9424 C   0  0  0  0  0  0  0  0  0  0  0  0
   -3.4965   -1.1722    0.5317 C   0  0  0  0  0  0  0  0  0  0  0  0
   -2.3815   -0.2683    0.4467 N   0  0  0  0  0  0  0  0  0  0  0  0
   -2.1324    0.5019   -0.7756 C   0  0  0  0  0  0  0  0  0  0  0  0
   -0.6379    0.4696   -1.1625 C   0  0  0  0  0  0  0  0  0  0  0  0
    0.2876    0.2277   -0.0194 N   0  0  0  0  0  0  0  0  0  0  0  0
    1.6321    0.8042   -0.2905 C   0  0  2  0  0  0  0  0  0  0  0  0
    2.2615    0.2444   -1.5750 C   0  0  0  0  0  0  0  0  0  0  0  0
    3.7126    0.1432   -1.3817 N   0  0  0  0  0  0  0  0  0  0  0  0
    3.9812    0.5110    0.0118 C   0  0  2  0  0  0  0  0  0  0  0  0
    5.0877   -0.3330    0.6187 C   0  0  0  0  0  0  0  0  0  0  0  0
    4.7940   -1.4002    1.2248 O   0  0  0  0  0  0  0  0  0  0  0  0
    6.4747    0.0245    0.4554 N   0  0  0  0  0  0  0  0  0  0  0  0
    6.9161    1.1378   -0.3744 C   0  0  0  0  0  0  0  0  0  0  0  0
    8.4177    1.0113   -0.5672 C   0  0  0  0  0  0  0  0  0  0  0  0
    9.0996    0.1494    0.8756 S   0  0  0  0  0  0  0  0  0  0  0  0
    7.5289   -0.7265    1.1230 C   0  0  0  0  0  0  0  0  0  0  0  0
    2.6594    0.4274    0.7644 C   0  0  0  0  0  0  0  0  0  0  0  0
   -0.2824    0.7454    1.2424 C   0  0  0  0  0  0  0  0  0  0  0  0
   -1.5098   -0.0884    1.6102 C   0  0  0  0  0  0  0  0  0  0  0  0
   -4.7540   -0.9078    0.1098 N   0  0  0  0  0  0  0  0  0  0  0  0
   -5.2959    0.3561   -0.3047 C   0  0  0  0  0  0  0  0  0  0  0  0
   -5.0166    1.5243    0.4252 C   0  0  0  0  0  0  0  0  0  0  0  0
   -5.5599    2.7500    0.0300 C   0  0  0  0  0  0  0  0  0  0  0  0
   -6.3956    2.8174   -1.0875 C   0  0  0  0  0  0  0  0  0  0  0  0
   -6.6931    1.6581   -1.8088 C   0  0  0  0  0  0  0  0  0  0  0  0
   -6.1516    0.4289   -1.4178 C   0  0  0  0  0  0  0  0  0  0  0  0
   -6.4419   -0.6850   -2.1360 F   0  0  0  0  0  0  0  0  0  0  0  0
   -5.4893   -2.0025    0.2319 N   0  0  0  0  0  0  0  0  0  0  0  0
   -5.4512   -4.4027    2.1167 H   0  0  0  0  0  0  0  0  0  0  0  0
   -4.3605   -5.0888    0.8447 H   0  0  0  0  0  0  0  0  0  0  0  0
   -6.0489   -4.6076    0.4210 H   0  0  0  0  0  0  0  0  0  0  0  0
   -2.5573   -3.0237    1.3152 H   0  0  0  0  0  0  0  0  0  0  0  0
   -2.4350    1.5567   -0.6014 H   0  0  0  0  0  0  0  0  0  0  0  0
   -2.7396    0.1106   -1.6217 H   0  0  0  0  0  0  0  0  0  0  0  0
   -0.4006    1.4273   -1.6797 H   0  0  0  0  0  0  0  0  0  0  0  0
   -0.4990   -0.3486   -1.9012 H   0  0  0  0  0  0  0  0  0  0  0  0
    1.5749    1.9162   -0.3611 H   0  0  0  0  0  0  0  0  0  0  0  0
    2.0493    0.9168   -2.4334 H   0  0  0  0  0  0  0  0  0  0  0  0
    1.8426   -0.7625   -1.8047 H   0  0  0  0  0  0  0  0  0  0  0  0
    3.9950   -0.8517   -1.5537 H   0  0  0  0  0  0  0  0  0  0  0  0
    4.2964    1.5771    0.0283 H   0  0  0  0  0  0  0  0  0  0  0  0
    6.6791    2.0951    0.1380 H   0  0  0  0  0  0  0  0  0  0  0  0
    6.4126    1.1107   -1.3649 H   0  0  0  0  0  0  0  0  0  0  0  0
    8.6319    0.4044   -1.4731 H   0  0  0  0  0  0  0  0  0  0  0  0
    8.8887    2.0108   -0.6776 H   0  0  0  0  0  0  0  0  0  0  0  0
    7.5976   -1.7465    0.6894 H   0  0  0  0  0  0  0  0  0  0  0  0
    7.3218   -0.7922    2.2120 H   0  0  0  0  0  0  0  0  0  0  0  0
    2.6521    1.1341    1.6229 H   0  0  0  0  0  0  0  0  0  0  0  0
    2.4585   -0.6072    1.1211 H   0  0  0  0  0  0  0  0  0  0  0  0
    0.4351    0.6570    2.0841 H   0  0  0  0  0  0  0  0  0  0  0  0
   -0.5593    1.8193    1.1388 H   0  0  0  0  0  0  0  0  0  0  0  0
   -2.0740    0.4097    2.4276 H   0  0  0  0  0  0  0  0  0  0  0  0
   -1.1636   -1.0809    1.9715 H   0  0  0  0  0  0  0  0  0  0  0  0
   -4.3845    1.4836    1.3030 H   0  0  0  0  0  0  0  0  0  0  0  0
   -5.3367    3.6469    0.5932 H   0  0  0  0  0  0  0  0  0  0  0  0
   -6.8161    3.7671   -1.3920 H   0  0  0  0  0  0  0  0  0  0  0  0
   -7.3435    1.7131   -2.6722 H   0  0  0  0  0  0  0  0  0  0  0  0
  1  2  1  0
  2  3  1  0
  3  4  2  0
  4  5  1  0
  5  6  1  0
  6  7  1  0
  7  8  1  0
  8  9  1  0
  9 10  1  0
 10 11  1  0
 11 12  1  0
 12 13  1  0
 13 14  2  0
 13 15  1  0
 15 16  1  0
 16 17  1  0
 17 18  1  0
 18 19  1  0
 12 20  1  0
  8 21  1  0
 21 22  1  0
  4 23  1  0
 23 24  1  0
 24 25  2  0
 25 26  1  0
 26 27  2  0
 27 28  1  0
 28 29  2  0
 29 30  1  0
 23 31  1  0
 31  2  2  0
 22  5  1  0
 29 24  1  0
 20  9  1  0
 19 15  1  0
  1 32  1  0
  1 33  1  0
  1 34  1  0
  3 35  1  0
  6 36  1  0
  6 37  1  0
  7 38  1  0
  7 39  1  0
  9 40  1  6
 10 41  1  0
 10 42  1  0
 11 43  1  0
 12 44  1  6
 16 45  1  0
 16 46  1  0
 17 47  1  0
 17 48  1  0
 19 49  1  0
 19 50  1  0
 20 51  1  0
 20 52  1  0
 21 53  1  0
 21 54  1  0
 22 55  1  0
 22 56  1  0
 25 57  1  0
 26 58  1  0
 27 59  1  0
 28 60  1  0
M  END
$$$$
