
     RDKit          3D

 43 45  0  0  0  0  0  0  0  0999 V2000
   -0.1289   -2.6093    2.0721 C   0  0  0  0  0  0  0  0  0  0  0  0
    0.1271   -1.3381    1.3147 C   0  0  0  0  0  0  0  0  0  0  0  0
   -0.9415   -0.5523    1.0163 N   0  0  0  0  0  0  0  0  0  0  0  0
   -0.8367    0.6167    0.3352 C   0  0  0  0  0  0  0  0  0  0  0  0
   -2.0451    1.4318    0.0550 C   0  0  0  0  0  0  0  0  0  0  0  0
   -1.9001    2.6465   -0.2543 O   0  0  0  0  0  0  0  0  0  0  0  0
   -3.3790    0.8872    0.1286 N   0  0  0  0  0  0  0  0  0  0  0  0
   -3.7052   -0.5308    0.1452 C   0  0  0  0  0  0  0  0  0  0  0  0
   -5.1961   -0.6139   -0.1517 C   0  0  0  0  0  0  0  0  0  0  0  0
   -5.7501    0.7782    0.1307 C   0  0  0  0  0  0  0  0  0  0  0  0
   -4.5628    1.7233    0.0129 C   0  0  0  0  0  0  0  0  0  0  0  0
    0.4288    1.0542   -0.0709 C   0  0  0  0  0  0  0  0  0  0  0  0
    1.5634    0.2853    0.2155 C   0  0  0  0  0  0  0  0  0  0  0  0
    2.8763    0.7882   -0.2434 C   0  0  0  0  0  0  0  0  0  0  0  0
    3.7422    1.3957    0.6796 C   0  0  0  0  0  0  0  0  0  0  0  0
    4.9790    1.8953    0.2640 C   0  0  0  0  0  0  0  0  0  0  0  0
    5.3573    1.8016   -1.0783 C   0  0  0  0  0  0  0  0  0  0  0  0
    6.9105    2.4296   -1.5978 Cl  0  0  0  0  0  0  0  0  0  0  0  0
    4.4954    1.2104   -2.0074 C   0  0  0  0  0  0  0  0  0  0  0  0
    3.2542    0.7074   -1.5993 C   0  0  0  0  0  0  0  0  0  0  0  0
    2.2021   -0.0294   -2.8034 Cl  0  0  0  0  0  0  0  0  0  0  0  0
    1.4292   -0.9314    0.9297 C   0  0  0  0  0  0  0  0  0  0  0  0
    2.6392   -1.8134    1.2039 C   0  0  0  0  0  0  0  0  0  0  0  0
    2.9153   -2.7003    0.0758 N   0  0  0  0  0  0  0  0  0  0  0  0
    0.3054   -3.4765    1.5337 H   0  0  0  0  0  0  0  0  0  0  0  0
   -1.2208   -2.7850    2.1781 H   0  0  0  0  0  0  0  0  0  0  0  0
    0.3109   -2.5375    3.0888 H   0  0  0  0  0  0  0  0  0  0  0  0
   -3.1249   -1.0765   -0.6305 H   0  0  0  0  0  0  0  0  0  0  0  0
   -3.4982   -0.9515    1.1527 H   0  0  0  0  0  0  0  0  0  0  0  0
   -5.6943   -1.3838    0.4767 H   0  0  0  0  0  0  0  0  0  0  0  0
   -5.3494   -0.8621   -1.2251 H   0  0  0  0  0  0  0  0  0  0  0  0
   -6.5566    1.0468   -0.5856 H   0  0  0  0  0  0  0  0  0  0  0  0
   -6.1532    0.8130    1.1668 H   0  0  0  0  0  0  0  0  0  0  0  0
   -4.5689    2.2286   -0.9775 H   0  0  0  0  0  0  0  0  0  0  0  0
   -4.5822    2.4818    0.8253 H   0  0  0  0  0  0  0  0  0  0  0  0
    0.5369    1.9857   -0.6149 H   0  0  0  0  0  0  0  0  0  0  0  0
    3.4584    1.4793    1.7217 H   0  0  0  0  0  0  0  0  0  0  0  0
    5.6411    2.3566    0.9855 H   0  0  0  0  0  0  0  0  0  0  0  0
    4.7898    1.1427   -3.0472 H   0  0  0  0  0  0  0  0  0  0  0  0
    3.5394   -1.2006    1.4124 H   0  0  0  0  0  0  0  0  0  0  0  0
    2.4937   -2.4248    2.1176 H   0  0  0  0  0  0  0  0  0  0  0  0
    2.0536   -3.2488   -0.1476 H   0  0  0  0  0  0  0  0  0  0  0  0
    3.1447   -2.1198   -0.7623 H   0  0  0  0  0  0  0  0  0  0  0  0
  1  2  1  0
  2  3  2  0
  3  4  1  0
  4  5  1  0
  5  6  2  0
  5  7  1  0
  7  8  1  0
  8  9  1  0
  9 10  1  0
 10 11  1  0
  4 12  2  0
 12 13  1  0
 13 14  1  0
 14 15  2  0
 15 16  1  0
 16 17  2  0
 17 18  1  0
 17 19  1  0
 19 20  2  0
 20 21  1  0
 13 22  2  0
 22 23  1  0
 23 24  1  0
 22  2  1  0
 11  7  1  0
 20 14  1  0
  1 25  1  0
  1 26  1  0
  1 27  1  0
  8 28  1  0
  8 29  1  0
  9 30  1  0
  9 31  1  0
 10 32  1  0
 10 33  1  0
 11 34  1  0
 11 35  1  0
 12 36  1  0
 15 37  1  0
 16 38  1  0
 19 39  1  0
 23 40  1  0
 23 41  1  0
 24 42  1  0
 24 43  1  0
M  END
$$$$
