
     RDKit          3D

 39 41  0  0  0  0  0  0  0  0999 V2000
   -0.7865   -1.0429    1.2637 N   0  0  0  0  0  0  0  0  0  0  0  0
   -1.6424   -0.2637    1.2634 C   0  0  0  0  0  0  0  0  0  0  0  0
   -2.7323    0.7273    1.2670 C   0  0  2  0  0  0  0  0  0  0  0  0
   -3.9655    0.1722    1.9853 C   0  0  0  0  0  0  0  0  0  0  0  0
   -5.1598    0.5551    1.1177 C   0  0  0  0  0  0  0  0  0  0  0  0
   -4.5982    0.8175   -0.2722 C   0  0  0  0  0  0  0  0  0  0  0  0
   -3.1716    1.0324   -0.0910 N   0  0  0  0  0  0  0  0  0  0  0  0
   -2.3591    1.6391   -1.1181 C   0  0  0  0  0  0  0  0  0  0  0  0
   -2.8419    1.8143   -2.2697 O   0  0  0  0  0  0  0  0  0  0  0  0
   -0.9290    2.0345   -0.8747 C   0  0  0  0  0  0  0  0  0  0  0  0
   -0.0299    0.9227   -1.1778 N   0  0  0  0  0  0  0  0  0  0  0  0
    1.3662    0.9795   -0.8560 C   0  0  0  0  0  0  0  0  0  0  0  0
    1.8544    2.0244   -0.3455 O   0  0  0  0  0  0  0  0  0  0  0  0
    2.2437   -0.1757   -1.1463 C   0  0  0  0  0  0  0  0  0  0  0  0
    2.1881   -0.7473   -2.4264 C   0  0  0  0  0  0  0  0  0  0  0  0
    3.0330   -1.8058   -2.7563 C   0  0  0  0  0  0  0  0  0  0  0  0
    3.9080   -2.2923   -1.8410 N   0  0  0  0  0  0  0  0  0  0  0  0
    3.9887   -1.7830   -0.5837 C   0  0  0  0  0  0  0  0  0  0  0  0
    4.8980   -2.3350    0.3257 C   0  0  0  0  0  0  0  0  0  0  0  0
    4.9724   -1.8436    1.6313 C   0  0  0  0  0  0  0  0  0  0  0  0
    6.1106   -2.5432    2.7682 Cl  0  0  0  0  0  0  0  0  0  0  0  0
    4.1314   -0.8041    2.0356 C   0  0  0  0  0  0  0  0  0  0  0  0
    3.2210   -0.2419    1.1361 C   0  0  0  0  0  0  0  0  0  0  0  0
    3.1478   -0.7096   -0.1931 C   0  0  0  0  0  0  0  0  0  0  0  0
   -2.3929    1.6583    1.7698 H   0  0  0  0  0  0  0  0  0  0  0  0
   -3.9290   -0.9382    2.0693 H   0  0  0  0  0  0  0  0  0  0  0  0
   -4.0614    0.6017    3.0064 H   0  0  0  0  0  0  0  0  0  0  0  0
   -5.9248   -0.2514    1.0992 H   0  0  0  0  0  0  0  0  0  0  0  0
   -5.6215    1.4861    1.5147 H   0  0  0  0  0  0  0  0  0  0  0  0
   -4.7598   -0.0608   -0.9339 H   0  0  0  0  0  0  0  0  0  0  0  0
   -5.0780    1.7175   -0.7154 H   0  0  0  0  0  0  0  0  0  0  0  0
   -0.6681    2.9002   -1.5209 H   0  0  0  0  0  0  0  0  0  0  0  0
   -0.7947    2.3534    0.1796 H   0  0  0  0  0  0  0  0  0  0  0  0
   -0.4150    0.0429   -1.5922 H   0  0  0  0  0  0  0  0  0  0  0  0
    1.5101   -0.3597   -3.1771 H   0  0  0  0  0  0  0  0  0  0  0  0
    2.9975   -2.2382   -3.7473 H   0  0  0  0  0  0  0  0  0  0  0  0
    5.5421   -3.1507    0.0202 H   0  0  0  0  0  0  0  0  0  0  0  0
    4.1778   -0.4333    3.0517 H   0  0  0  0  0  0  0  0  0  0  0  0
    2.5706    0.5415    1.4985 H   0  0  0  0  0  0  0  0  0  0  0  0
  1  2  3  0
  2  3  1  0
  3  4  1  0
  4  5  1  0
  5  6  1  0
  6  7  1  0
  7  8  1  0
  8  9  2  0
  8 10  1  0
 10 11  1  0
 11 12  1  0
 12 13  2  0
 12 14  1  0
 14 15  2  0
 15 16  1  0
 16 17  2  0
 17 18  1  0
 18 19  2  0
 19 20  1  0
 20 21  1  0
 20 22  2  0
 22 23  1  0
 23 24  2  0
  7  3  1  0
 24 14  1  0
 24 18  1  0
  3 25  1  1
  4 26  1  0
  4 27  1  0
  5 28  1  0
  5 29  1  0
  6 30  1  0
  6 31  1  0
 10 32  1  0
 10 33  1  0
 11 34  1  0
 15 35  1  0
 16 36  1  0
 19 37  1  0
 22 38  1  0
 23 39  1  0
M  END
$$$$
