
     RDKit          3D

 53 55  0  0  0  0  0  0  0  0999 V2000
    0.6878    0.0000    0.0000 Cl  0  0  0  0  0  0  0  0  0  0  0  0
   -8.5584   -2.2212   -2.4353 N   0  0  0  0  0  0  0  0  0  0  0  0
   -7.6503   -1.5966   -2.0824 C   0  0  0  0  0  0  0  0  0  0  0  0
   -6.5207   -0.8198   -1.6434 C   0  0  0  0  0  0  0  0  0  0  0  0
   -5.9370    0.1177   -2.5024 C   0  0  0  0  0  0  0  0  0  0  0  0
   -4.8410    0.8734   -2.0754 C   0  0  0  0  0  0  0  0  0  0  0  0
   -4.3071    0.6935   -0.7872 C   0  0  0  0  0  0  0  0  0  0  0  0
   -3.1479    1.5098   -0.3594 C   0  0  0  0  0  0  0  0  0  0  0  0
   -2.8716    2.7361   -0.8587 N   0  0  0  0  0  0  0  0  0  0  0  0
   -1.7339    3.1417   -0.3101 N   0  0  0  0  0  0  0  0  0  0  0  0
   -1.2807    2.2243    0.5266 N   0  0  0  0  0  0  0  0  0  0  0  0
   -2.1206    1.1803    0.5118 C   0  0  0  0  0  0  0  0  0  0  0  0
   -1.8542   -0.0865    1.2689 C   0  0  0  0  0  0  0  0  0  0  0  0
   -0.4714   -0.0949    1.7758 N   0  0  0  0  0  0  0  0  0  0  0  0
    0.1517   -1.3665    2.0665 C   0  0  0  0  0  0  0  0  0  0  0  0
   -0.5651   -2.3973    2.1905 O   0  0  0  0  0  0  0  0  0  0  0  0
    1.6472   -1.5202    2.1804 C   0  0  0  0  0  0  0  0  0  0  0  0
    2.3707   -1.1176    0.8766 C   0  0  2  0  0  0  0  0  0  0  0  0
    2.0848   -2.0941   -0.1808 N   0  0  0  0  0  0  0  0  0  0  0  0
    3.8909   -1.0351    1.1293 C   0  0  0  0  0  0  0  0  0  0  0  0
    4.6231   -0.4193   -0.0386 C   0  0  0  0  0  0  0  0  0  0  0  0
    4.5870    0.9733   -0.2260 C   0  0  0  0  0  0  0  0  0  0  0  0
    5.2399    1.5576   -1.3155 C   0  0  0  0  0  0  0  0  0  0  0  0
    5.1992    2.9023   -1.4857 F   0  0  0  0  0  0  0  0  0  0  0  0
    5.9309    0.7562   -2.2292 C   0  0  0  0  0  0  0  0  0  0  0  0
    6.5636    1.3214   -3.2871 F   0  0  0  0  0  0  0  0  0  0  0  0
    5.9669   -0.6300   -2.0550 C   0  0  0  0  0  0  0  0  0  0  0  0
    5.3152   -1.2204   -0.9671 C   0  0  0  0  0  0  0  0  0  0  0  0
    5.3541   -2.5698   -0.8262 F   0  0  0  0  0  0  0  0  0  0  0  0
    0.0966    1.1753    2.2689 C   0  0  0  0  0  0  0  0  0  0  0  0
    0.0227    2.2541    1.1797 C   0  0  0  0  0  0  0  0  0  0  0  0
   -4.9115   -0.2387    0.0751 C   0  0  0  0  0  0  0  0  0  0  0  0
   -6.0083   -0.9932   -0.3529 C   0  0  0  0  0  0  0  0  0  0  0  0
   -0.6878    0.0000    0.0000 H   0  0  0  0  0  0  0  0  0  0  0  0
   -6.3286    0.2648   -3.5019 H   0  0  0  0  0  0  0  0  0  0  0  0
   -4.4015    1.5904   -2.7580 H   0  0  0  0  0  0  0  0  0  0  0  0
   -2.0189   -0.9480    0.5859 H   0  0  0  0  0  0  0  0  0  0  0  0
   -2.5492   -0.1556    2.1311 H   0  0  0  0  0  0  0  0  0  0  0  0
    1.8957   -2.5785    2.4181 H   0  0  0  0  0  0  0  0  0  0  0  0
    2.0076   -0.9185    3.0405 H   0  0  0  0  0  0  0  0  0  0  0  0
    2.0120   -0.1143    0.5565 H   0  0  0  0  0  0  0  0  0  0  0  0
    2.4936   -1.7450   -1.0774 H   0  0  0  0  0  0  0  0  0  0  0  0
    1.0526   -2.1191   -0.3460 H   0  0  0  0  0  0  0  0  0  0  0  0
    4.2890   -2.0480    1.3574 H   0  0  0  0  0  0  0  0  0  0  0  0
    4.0871   -0.4085    2.0273 H   0  0  0  0  0  0  0  0  0  0  0  0
    4.0497    1.6042    0.4718 H   0  0  0  0  0  0  0  0  0  0  0  0
    6.4985   -1.2491   -2.7664 H   0  0  0  0  0  0  0  0  0  0  0  0
    1.1530    1.0720    2.5833 H   0  0  0  0  0  0  0  0  0  0  0  0
   -0.4850    1.5084    3.1557 H   0  0  0  0  0  0  0  0  0  0  0  0
    0.1952    3.2551    1.6300 H   0  0  0  0  0  0  0  0  0  0  0  0
    0.8107    2.0668    0.4192 H   0  0  0  0  0  0  0  0  0  0  0  0
   -4.5644   -0.3675    1.0885 H   0  0  0  0  0  0  0  0  0  0  0  0
   -6.4619   -1.7055    0.3259 H   0  0  0  0  0  0  0  0  0  0  0  0
  2  3  3  0
  3  4  1  0
  4  5  2  0
  5  6  1  0
  6  7  2  0
  7  8  1  0
  8  9  1  0
  9 10  2  0
 10 11  1  0
 11 12  1  0
 12 13  1  0
 13 14  1  0
 14 15  1  0
 15 16  2  0
 15 17  1  0
 17 18  1  0
 18 19  1  0
 18 20  1  0
 20 21  1  0
 21 22  2  0
 22 23  1  0
 23 24  1  0
 23 25  2  0
 25 26  1  0
 25 27  1  0
 27 28  2  0
 28 29  1  0
 14 30  1  0
 30 31  1  0
  7 32  1  0
 32 33  2  0
 33  4  1  0
 12  8  2  0
 28 21  1  0
 31 11  1  0
  1 34  1  0
  5 35  1  0
  6 36  1  0
 13 37  1  0
 13 38  1  0
 17 39  1  0
 17 40  1  0
 18 41  1  6
 19 42  1  0
 19 43  1  0
 20 44  1  0
 20 45  1  0
 22 46  1  0
 27 47  1  0
 30 48  1  0
 30 49  1  0
 31 50  1  0
 31 51  1  0
 32 52  1  0
 33 53  1  0
M  END
$$$$
