
     RDKit          3D

 52 53  0  0  0  0  0  0  0  0999 V2000
    0.6878    0.0000    0.0000 Cl  0  0  0  0  0  0  0  0  0  0  0  0
   -2.8273   -0.6974    1.0106 N   0  0  0  0  0  0  0  0  0  0  0  0
   -2.7031    0.0748   -0.2300 C   0  0  1  0  0  0  0  0  0  0  0  0
   -1.5314   -0.4369   -1.0992 C   0  0  0  0  0  0  0  0  0  0  0  0
   -0.1950   -0.2288   -0.4361 C   0  0  0  0  0  0  0  0  0  0  0  0
    0.1499    0.9409   -0.1160 O   0  0  0  0  0  0  0  0  0  0  0  0
    0.6943   -1.3327   -0.1787 N   0  0  0  0  0  0  0  0  0  0  0  0
    0.2280   -2.6597    0.1843 C   0  0  0  0  0  0  0  0  0  0  0  0
    1.4454   -3.3679    0.7940 C   0  0  0  0  0  0  0  0  0  0  0  0
    2.5957   -2.3537    0.7667 C   0  0  0  0  0  0  0  0  0  0  0  0
    2.0556   -1.1798    0.1068 N   0  0  0  0  0  0  0  0  0  0  0  0
    2.8981   -0.1827   -0.4971 C   0  0  0  0  0  0  0  0  0  0  0  0
    2.4902    0.4581   -1.5035 O   0  0  0  0  0  0  0  0  0  0  0  0
    4.1982    0.0868    0.0518 N   0  0  0  0  0  0  0  0  0  0  0  0
    5.2177    0.8415   -0.6254 C   0  0  0  0  0  0  0  0  0  0  0  0
    6.1166    1.6142    0.1269 C   0  0  0  0  0  0  0  0  0  0  0  0
    7.1305    2.3389   -0.5073 C   0  0  0  0  0  0  0  0  0  0  0  0
    7.2646    2.2859   -1.8969 C   0  0  0  0  0  0  0  0  0  0  0  0
    6.3900    1.5017   -2.6533 C   0  0  0  0  0  0  0  0  0  0  0  0
    5.3741    0.7762   -2.0229 C   0  0  0  0  0  0  0  0  0  0  0  0
   -4.0228    0.0086   -1.0219 C   0  0  0  0  0  0  0  0  0  0  0  0
   -5.1660    0.6112   -0.2420 C   0  0  0  0  0  0  0  0  0  0  0  0
   -5.3533    2.0041   -0.2427 C   0  0  0  0  0  0  0  0  0  0  0  0
   -6.3914    2.5784    0.4974 C   0  0  0  0  0  0  0  0  0  0  0  0
   -6.5650    3.9233    0.4867 F   0  0  0  0  0  0  0  0  0  0  0  0
   -7.2463    1.7677    1.2498 C   0  0  0  0  0  0  0  0  0  0  0  0
   -8.2526    2.3234    1.9691 F   0  0  0  0  0  0  0  0  0  0  0  0
   -7.0616    0.3824    1.2648 C   0  0  0  0  0  0  0  0  0  0  0  0
   -6.0249   -0.1978    0.5264 C   0  0  0  0  0  0  0  0  0  0  0  0
   -5.8592   -1.5444    0.5644 F   0  0  0  0  0  0  0  0  0  0  0  0
   -0.6878    0.0000    0.0000 H   0  0  0  0  0  0  0  0  0  0  0  0
   -2.8814   -1.7171    0.7834 H   0  0  0  0  0  0  0  0  0  0  0  0
   -1.9774   -0.5423    1.5993 H   0  0  0  0  0  0  0  0  0  0  0  0
   -2.5133    1.1411    0.0294 H   0  0  0  0  0  0  0  0  0  0  0  0
   -1.5163    0.1219   -2.0599 H   0  0  0  0  0  0  0  0  0  0  0  0
   -1.6874   -1.5065   -1.3515 H   0  0  0  0  0  0  0  0  0  0  0  0
   -0.1263   -3.2002   -0.7194 H   0  0  0  0  0  0  0  0  0  0  0  0
   -0.5872   -2.5908    0.9351 H   0  0  0  0  0  0  0  0  0  0  0  0
    1.7086   -4.2656    0.1927 H   0  0  0  0  0  0  0  0  0  0  0  0
    1.2311   -3.6839    1.8383 H   0  0  0  0  0  0  0  0  0  0  0  0
    3.4577   -2.7593    0.1928 H   0  0  0  0  0  0  0  0  0  0  0  0
    2.9139   -2.0926    1.7988 H   0  0  0  0  0  0  0  0  0  0  0  0
    4.3781   -0.2034    1.0392 H   0  0  0  0  0  0  0  0  0  0  0  0
    6.0244    1.6618    1.2048 H   0  0  0  0  0  0  0  0  0  0  0  0
    7.8136    2.9398    0.0790 H   0  0  0  0  0  0  0  0  0  0  0  0
    8.0511    2.8454   -2.3866 H   0  0  0  0  0  0  0  0  0  0  0  0
    6.5048    1.4487   -3.7283 H   0  0  0  0  0  0  0  0  0  0  0  0
    4.7314    0.1476   -2.6245 H   0  0  0  0  0  0  0  0  0  0  0  0
   -4.2497   -1.0459   -1.2928 H   0  0  0  0  0  0  0  0  0  0  0  0
   -3.9102    0.5644   -1.9789 H   0  0  0  0  0  0  0  0  0  0  0  0
   -4.6930    2.6435   -0.8158 H   0  0  0  0  0  0  0  0  0  0  0  0
   -7.7215   -0.2431    1.8522 H   0  0  0  0  0  0  0  0  0  0  0  0
  2  3  1  0
  3  4  1  0
  4  5  1  0
  5  6  2  0
  5  7  1  0
  7  8  1  0
  8  9  1  0
  9 10  1  0
 10 11  1  0
 11 12  1  0
 12 13  2  0
 12 14  1  0
 14 15  1  0
 15 16  2  0
 16 17  1  0
 17 18  2  0
 18 19  1  0
 19 20  2  0
  3 21  1  0
 21 22  1  0
 22 23  2  0
 23 24  1  0
 24 25  1  0
 24 26  2  0
 26 27  1  0
 26 28  1  0
 28 29  2  0
 29 30  1  0
 11  7  1  0
 20 15  1  0
 29 22  1  0
  1 31  1  0
  2 32  1  0
  2 33  1  0
  3 34  1  1
  4 35  1  0
  4 36  1  0
  8 37  1  0
  8 38  1  0
  9 39  1  0
  9 40  1  0
 10 41  1  0
 10 42  1  0
 14 43  1  0
 16 44  1  0
 17 45  1  0
 18 46  1  0
 19 47  1  0
 20 48  1  0
 21 49  1  0
 21 50  1  0
 23 51  1  0
 28 52  1  0
M  END
$$$$
