
     RDKit          3D

 40 41  0  0  0  0  0  0  0  0999 V2000
   -3.1129    3.3679   -0.2660 C   0  0  0  0  0  0  0  0  0  0  0  0
   -2.3808    2.2695    0.3633 C   0  0  0  0  0  0  0  0  0  0  0  0
   -1.7730    1.3647    0.8773 C   0  0  0  0  0  0  0  0  0  0  0  0
   -1.0253    0.2640    1.4935 C   0  0  0  0  0  0  0  0  0  0  0  0
   -1.0354   -0.9155    0.6061 N   0  0  0  0  0  0  0  0  0  0  0  0
   -0.0470   -1.0863   -0.3300 C   0  0  0  0  0  0  0  0  0  0  0  0
    1.0168   -0.1331   -0.4688 N   0  0  0  0  0  0  0  0  0  0  0  0
    0.8613    0.9910   -1.3974 C   0  0  0  0  0  0  0  0  0  0  0  0
    1.4442    2.2854   -0.8026 C   0  0  0  0  0  0  0  0  0  0  0  0
    2.6713    2.0587    0.1068 C   0  0  0  0  0  0  0  0  0  0  0  0
    3.3368    0.6949   -0.1330 C   0  0  1  0  0  0  0  0  0  0  0  0
    4.5217    0.5543    0.7158 N   0  0  0  0  0  0  0  0  0  0  0  0
    2.3215   -0.4355    0.1331 C   0  0  0  0  0  0  0  0  0  0  0  0
   -0.0753   -2.1852   -1.1827 C   0  0  0  0  0  0  0  0  0  0  0  0
   -1.1133   -3.1010   -1.0753 C   0  0  0  0  0  0  0  0  0  0  0  0
   -1.1414   -4.0855   -1.8640 O   0  0  0  0  0  0  0  0  0  0  0  0
   -2.0905   -2.9278   -0.1322 N   0  0  0  0  0  0  0  0  0  0  0  0
   -3.2100   -3.8819   -0.0475 C   0  0  0  0  0  0  0  0  0  0  0  0
   -2.0679   -1.8210    0.6811 C   0  0  0  0  0  0  0  0  0  0  0  0
   -3.0099   -1.6297    1.5024 O   0  0  0  0  0  0  0  0  0  0  0  0
   -4.0133    2.9680   -0.7759 H   0  0  0  0  0  0  0  0  0  0  0  0
   -3.4205    4.0996    0.5091 H   0  0  0  0  0  0  0  0  0  0  0  0
   -2.4588    3.8689   -1.0091 H   0  0  0  0  0  0  0  0  0  0  0  0
   -1.4761    0.0254    2.4804 H   0  0  0  0  0  0  0  0  0  0  0  0
    0.0094    0.6033    1.7072 H   0  0  0  0  0  0  0  0  0  0  0  0
   -0.2107    1.1517   -1.6468 H   0  0  0  0  0  0  0  0  0  0  0  0
    1.3907    0.7468   -2.3439 H   0  0  0  0  0  0  0  0  0  0  0  0
    0.6559    2.8042   -0.2149 H   0  0  0  0  0  0  0  0  0  0  0  0
    1.7239    2.9620   -1.6392 H   0  0  0  0  0  0  0  0  0  0  0  0
    3.4119    2.8700   -0.0659 H   0  0  0  0  0  0  0  0  0  0  0  0
    2.3503    2.1229    1.1705 H   0  0  0  0  0  0  0  0  0  0  0  0
    3.6622    0.6450   -1.1966 H   0  0  0  0  0  0  0  0  0  0  0  0
    4.2322    0.5391    1.7212 H   0  0  0  0  0  0  0  0  0  0  0  0
    4.9730   -0.3661    0.5073 H   0  0  0  0  0  0  0  0  0  0  0  0
    2.7131   -1.3890   -0.2830 H   0  0  0  0  0  0  0  0  0  0  0  0
    2.1859   -0.5660    1.2289 H   0  0  0  0  0  0  0  0  0  0  0  0
    0.6988   -2.3174   -1.9297 H   0  0  0  0  0  0  0  0  0  0  0  0
   -2.8990   -4.9015   -0.3602 H   0  0  0  0  0  0  0  0  0  0  0  0
   -3.5787   -3.9755    0.9964 H   0  0  0  0  0  0  0  0  0  0  0  0
   -4.0412   -3.5391   -0.6990 H   0  0  0  0  0  0  0  0  0  0  0  0
  1  2  1  0
  2  3  3  0
  3  4  1  0
  4  5  1  0
  5  6  1  0
  6  7  1  0
  7  8  1  0
  8  9  1  0
  9 10  1  0
 10 11  1  0
 11 12  1  0
 11 13  1  0
  6 14  2  0
 14 15  1  0
 15 16  2  0
 15 17  1  0
 17 18  1  0
 17 19  1  0
 19 20  2  0
 19  5  1  0
 13  7  1  0
  1 21  1  0
  1 22  1  0
  1 23  1  0
  4 24  1  0
  4 25  1  0
  8 26  1  0
  8 27  1  0
  9 28  1  0
  9 29  1  0
 10 30  1  0
 10 31  1  0
 11 32  1  6
 12 33  1  0
 12 34  1  0
 13 35  1  0
 13 36  1  0
 14 37  1  0
 18 38  1  0
 18 39  1  0
 18 40  1  0
M  END
$$$$
