
     RDKit          3D

 55 56  0  0  0  0  0  0  0  0999 V2000
    0.6878    0.0000    0.0000 Cl  0  0  0  0  0  0  0  0  0  0  0  0
   -2.5723   -2.3168   -0.4791 N   0  0  0  0  0  0  0  0  0  0  0  0
   -2.5200   -1.1543    0.4112 C   0  0  1  0  0  0  0  0  0  0  0  0
   -1.7483   -0.0009   -0.2713 C   0  0  0  0  0  0  0  0  0  0  0  0
   -1.3768    1.0842    0.7076 C   0  0  0  0  0  0  0  0  0  0  0  0
   -2.1303    2.0904    0.8053 O   0  0  0  0  0  0  0  0  0  0  0  0
   -0.2129    0.9837    1.5565 N   0  0  0  0  0  0  0  0  0  0  0  0
   -0.0174    1.9115    2.6636 C   0  0  0  0  0  0  0  0  0  0  0  0
    1.3683    1.6784    3.2443 C   0  0  0  0  0  0  0  0  0  0  0  0
    1.8474   -0.0359    2.8958 S   0  0  0  0  0  0  0  0  0  0  0  0
    0.8146   -0.0449    1.4022 C   0  0  0  0  0  0  0  0  0  0  0  0
    1.6757    0.2330    0.2030 C   0  0  0  0  0  0  0  0  0  0  0  0
    2.0197    1.4179   -0.0602 O   0  0  0  0  0  0  0  0  0  0  0  0
    2.1408   -0.8516   -0.6123 N   0  0  0  0  0  0  0  0  0  0  0  0
    3.0655   -0.6534   -1.7255 C   0  0  0  0  0  0  0  0  0  0  0  0
    4.4409   -0.3327   -1.2069 C   0  0  0  0  0  0  0  0  0  0  0  0
    5.1953   -1.3242   -0.5596 C   0  0  0  0  0  0  0  0  0  0  0  0
    6.4632   -1.0260   -0.0512 C   0  0  0  0  0  0  0  0  0  0  0  0
    6.9875    0.2642   -0.1803 C   0  0  0  0  0  0  0  0  0  0  0  0
    8.2517    0.5475    0.3316 O   0  0  0  0  0  0  0  0  0  0  0  0
    6.2365    1.2589   -0.8213 C   0  0  0  0  0  0  0  0  0  0  0  0
    4.9684    0.9631   -1.3307 C   0  0  0  0  0  0  0  0  0  0  0  0
   -3.9474   -0.7467    0.8559 C   0  0  0  0  0  0  0  0  0  0  0  0
   -4.8851   -0.4542   -0.2961 C   0  0  0  0  0  0  0  0  0  0  0  0
   -5.0422    0.8639   -0.7601 C   0  0  0  0  0  0  0  0  0  0  0  0
   -5.8957    1.1420   -1.8319 C   0  0  0  0  0  0  0  0  0  0  0  0
   -6.0332    2.4171   -2.2727 F   0  0  0  0  0  0  0  0  0  0  0  0
   -6.6071    0.1082   -2.4465 C   0  0  0  0  0  0  0  0  0  0  0  0
   -7.4362    0.3766   -3.4855 F   0  0  0  0  0  0  0  0  0  0  0  0
   -6.4698   -1.2033   -1.9855 C   0  0  0  0  0  0  0  0  0  0  0  0
   -5.6168   -1.4879   -0.9141 C   0  0  0  0  0  0  0  0  0  0  0  0
   -5.5205   -2.7672   -0.4722 F   0  0  0  0  0  0  0  0  0  0  0  0
   -0.6878    0.0000    0.0000 H   0  0  0  0  0  0  0  0  0  0  0  0
   -2.9885   -3.1161    0.0520 H   0  0  0  0  0  0  0  0  0  0  0  0
   -1.5932   -2.6118   -0.7001 H   0  0  0  0  0  0  0  0  0  0  0  0
   -1.9643   -1.4485    1.3304 H   0  0  0  0  0  0  0  0  0  0  0  0
   -2.3478    0.4281   -1.1012 H   0  0  0  0  0  0  0  0  0  0  0  0
   -0.8259   -0.3926   -0.7457 H   0  0  0  0  0  0  0  0  0  0  0  0
   -0.7916    1.7235    3.4387 H   0  0  0  0  0  0  0  0  0  0  0  0
   -0.1011    2.9618    2.3087 H   0  0  0  0  0  0  0  0  0  0  0  0
    1.3754    1.8646    4.3389 H   0  0  0  0  0  0  0  0  0  0  0  0
    2.1016    2.3549    2.7553 H   0  0  0  0  0  0  0  0  0  0  0  0
    0.3464   -1.0472    1.3243 H   0  0  0  0  0  0  0  0  0  0  0  0
    1.8175   -1.8228   -0.4021 H   0  0  0  0  0  0  0  0  0  0  0  0
    3.1172   -1.5846   -2.3305 H   0  0  0  0  0  0  0  0  0  0  0  0
    2.6829    0.1490   -2.3935 H   0  0  0  0  0  0  0  0  0  0  0  0
    4.7992   -2.3259   -0.4464 H   0  0  0  0  0  0  0  0  0  0  0  0
    7.0377   -1.7974    0.4457 H   0  0  0  0  0  0  0  0  0  0  0  0
    8.6589    1.4722    0.2546 H   0  0  0  0  0  0  0  0  0  0  0  0
    6.6333    2.2610   -0.9231 H   0  0  0  0  0  0  0  0  0  0  0  0
    4.3985    1.7446   -1.8177 H   0  0  0  0  0  0  0  0  0  0  0  0
   -3.8911    0.1347    1.5305 H   0  0  0  0  0  0  0  0  0  0  0  0
   -4.3752   -1.5642    1.4762 H   0  0  0  0  0  0  0  0  0  0  0  0
   -4.5046    1.6775   -0.2919 H   0  0  0  0  0  0  0  0  0  0  0  0
   -7.0287   -2.0016   -2.4570 H   0  0  0  0  0  0  0  0  0  0  0  0
  2  3  1  0
  3  4  1  0
  4  5  1  0
  5  6  2  0
  5  7  1  0
  7  8  1  0
  8  9  1  0
  9 10  1  0
 10 11  1  0
 11 12  1  0
 12 13  2  0
 12 14  1  0
 14 15  1  0
 15 16  1  0
 16 17  2  0
 17 18  1  0
 18 19  2  0
 19 20  1  0
 19 21  1  0
 21 22  2  0
  3 23  1  0
 23 24  1  0
 24 25  2  0
 25 26  1  0
 26 27  1  0
 26 28  2  0
 28 29  1  0
 28 30  1  0
 30 31  2  0
 31 32  1  0
 11  7  1  0
 22 16  1  0
 31 24  1  0
  1 33  1  0
  2 34  1  0
  2 35  1  0
  3 36  1  1
  4 37  1  0
  4 38  1  0
  8 39  1  0
  8 40  1  0
  9 41  1  0
  9 42  1  0
 11 43  1  0
 14 44  1  0
 15 45  1  0
 15 46  1  0
 17 47  1  0
 18 48  1  0
 20 49  1  0
 21 50  1  0
 22 51  1  0
 23 52  1  0
 23 53  1  0
 25 54  1  0
 30 55  1  0
M  END
$$$$
