
     RDKit          3D

 52 54  0  0  0  0  0  0  0  0999 V2000
    0.6446   -0.1115   -2.2780 N   0  0  0  0  0  0  0  0  0  0  0  0
    1.0102    0.7434   -1.1447 C   0  0  1  0  0  0  0  0  0  0  0  0
   -0.2467    1.4698   -0.5958 C   0  0  0  0  0  0  0  0  0  0  0  0
   -0.8240    0.7742    0.5616 N   0  0  0  0  0  0  0  0  0  0  0  0
   -2.2477    0.7644    0.7303 C   0  0  0  0  0  0  0  0  0  0  0  0
   -2.8202    1.6713    1.5682 N   0  0  0  0  0  0  0  0  0  0  0  0
   -4.1636    1.7355    1.7578 C   0  0  0  0  0  0  0  0  0  0  0  0
   -5.0108    0.8580    1.0822 C   0  0  0  0  0  0  0  0  0  0  0  0
   -4.4641   -0.0973    0.2166 C   0  0  0  0  0  0  0  0  0  0  0  0
   -5.2952   -0.9988   -0.4664 C   0  0  0  0  0  0  0  0  0  0  0  0
   -4.7403   -1.9592   -1.3157 C   0  0  0  0  0  0  0  0  0  0  0  0
   -3.3560   -2.0312   -1.4851 C   0  0  0  0  0  0  0  0  0  0  0  0
   -2.5169   -1.1393   -0.8120 C   0  0  0  0  0  0  0  0  0  0  0  0
   -3.0605   -0.1569    0.0363 C   0  0  0  0  0  0  0  0  0  0  0  0
    0.0160    0.3977    1.7049 C   0  0  0  0  0  0  0  0  0  0  0  0
    1.5066    0.4666    1.3532 C   0  0  0  0  0  0  0  0  0  0  0  0
    1.7363   -0.1045   -0.0574 C   0  0  2  0  0  0  0  0  0  0  0  0
    3.2212   -0.2460   -0.3591 C   0  0  0  0  0  0  0  0  0  0  0  0
    4.0725    0.8763   -0.3075 C   0  0  0  0  0  0  0  0  0  0  0  0
    5.4349    0.7498   -0.5931 C   0  0  0  0  0  0  0  0  0  0  0  0
    6.2405    1.8393   -0.5380 F   0  0  0  0  0  0  0  0  0  0  0  0
    5.9652   -0.4956   -0.9375 C   0  0  0  0  0  0  0  0  0  0  0  0
    7.2867   -0.6191   -1.2155 F   0  0  0  0  0  0  0  0  0  0  0  0
    5.1329   -1.6150   -0.9994 C   0  0  0  0  0  0  0  0  0  0  0  0
    3.7684   -1.4969   -0.7152 C   0  0  0  0  0  0  0  0  0  0  0  0
    2.9873   -2.6042   -0.7925 F   0  0  0  0  0  0  0  0  0  0  0  0
    0.7494   -0.5113   -1.4613 O   0  0  0  0  0  0  0  0  0  0  0  0
    0.4698   -0.0972   -0.3044 C   0  0  0  0  0  0  0  0  0  0  0  0
    1.4843    0.3551    0.5340 O   0  0  0  0  0  0  0  0  0  0  0  0
   -0.9543   -0.0364    0.1442 C   0  0  0  0  0  0  0  0  0  0  0  0
   -1.6512   -1.1262   -0.3455 F   0  0  0  0  0  0  0  0  0  0  0  0
   -1.5344    1.1257   -0.3279 F   0  0  0  0  0  0  0  0  0  0  0  0
   -1.0156   -0.0469    1.5258 F   0  0  0  0  0  0  0  0  0  0  0  0
    0.2714    0.4945   -3.0449 H   0  0  0  0  0  0  0  0  0  0  0  0
    1.5160   -0.5454   -2.6607 H   0  0  0  0  0  0  0  0  0  0  0  0
    1.6972    1.5375   -1.5178 H   0  0  0  0  0  0  0  0  0  0  0  0
    0.0395    2.4953   -0.2747 H   0  0  0  0  0  0  0  0  0  0  0  0
   -1.0089    1.5907   -1.3975 H   0  0  0  0  0  0  0  0  0  0  0  0
   -4.5754    2.4739    2.4327 H   0  0  0  0  0  0  0  0  0  0  0  0
   -6.0811    0.9215    1.2390 H   0  0  0  0  0  0  0  0  0  0  0  0
   -6.3709   -0.9627   -0.3409 H   0  0  0  0  0  0  0  0  0  0  0  0
   -5.3847   -2.6535   -1.8394 H   0  0  0  0  0  0  0  0  0  0  0  0
   -2.9312   -2.7834   -2.1374 H   0  0  0  0  0  0  0  0  0  0  0  0
   -1.4483   -1.2301   -0.9495 H   0  0  0  0  0  0  0  0  0  0  0  0
   -0.2335   -0.6437    2.0049 H   0  0  0  0  0  0  0  0  0  0  0  0
   -0.1934    1.0678    2.5666 H   0  0  0  0  0  0  0  0  0  0  0  0
    1.8433    1.5249    1.4027 H   0  0  0  0  0  0  0  0  0  0  0  0
    2.0851   -0.1162    2.1033 H   0  0  0  0  0  0  0  0  0  0  0  0
    1.2700   -1.1159   -0.0539 H   0  0  0  0  0  0  0  0  0  0  0  0
    3.6814    1.8524   -0.0515 H   0  0  0  0  0  0  0  0  0  0  0  0
    5.5457   -2.5784   -1.2705 H   0  0  0  0  0  0  0  0  0  0  0  0
    2.4521    0.3372    0.2351 H   0  0  0  0  0  0  0  0  0  0  0  0
  1  2  1  0
  2  3  1  0
  3  4  1  0
  4  5  1  0
  5  6  2  0
  6  7  1  0
  7  8  2  0
  8  9  1  0
  9 10  2  0
 10 11  1  0
 11 12  2  0
 12 13  1  0
 13 14  2  0
  4 15  1  0
 15 16  1  0
 16 17  1  0
 17 18  1  0
 18 19  2  0
 19 20  1  0
 20 21  1  0
 20 22  2  0
 22 23  1  0
 22 24  1  0
 24 25  2  0
 25 26  1  0
 27 28  2  0
 28 29  1  0
 28 30  1  0
 30 31  1  0
 30 32  1  0
 30 33  1  0
 17  2  1  0
 25 18  1  0
 14  5  1  0
 14  9  1  0
  1 34  1  0
  1 35  1  0
  2 36  1  6
  3 37  1  0
  3 38  1  0
  7 39  1  0
  8 40  1  0
 10 41  1  0
 11 42  1  0
 12 43  1  0
 13 44  1  0
 15 45  1  0
 15 46  1  0
 16 47  1  0
 16 48  1  0
 17 49  1  1
 19 50  1  0
 24 51  1  0
 29 52  1  0
M  END
$$$$
