
     RDKit          3D

 77 80  0  0  0  0  0  0  0  0999 V2000
    2.7844   -4.9180    1.8493 N   0  0  0  0  0  0  0  0  0  0  0  0
    2.6197   -3.8048    0.9118 C   0  0  1  0  0  0  0  0  0  0  0  0
    1.5665   -4.1728   -0.1532 C   0  0  0  0  0  0  0  0  0  0  0  0
    1.6065   -3.2273   -1.3294 C   0  0  0  0  0  0  0  0  0  0  0  0
    2.4439   -3.4602   -2.2439 O   0  0  0  0  0  0  0  0  0  0  0  0
    0.7633   -2.0547   -1.4117 N   0  0  0  0  0  0  0  0  0  0  0  0
    1.0511   -1.0176   -2.4139 C   0  0  0  0  0  0  0  0  0  0  0  0
    0.8208    0.3748   -1.8188 C   0  0  0  0  0  0  0  0  0  0  0  0
   -0.4493    0.4580   -1.0825 N   0  0  0  0  0  0  0  0  0  0  0  0
   -0.8142    1.7317   -0.5019 C   0  0  0  0  0  0  0  0  0  0  0  0
    0.1010    2.5238   -0.1455 O   0  0  0  0  0  0  0  0  0  0  0  0
   -2.2518    2.1854   -0.3094 C   0  0  0  0  0  0  0  0  0  0  0  0
   -3.1778    1.6725   -1.4057 C   0  0  0  0  0  0  0  0  0  0  0  0
   -4.2357    0.7727   -1.1516 C   0  0  0  0  0  0  0  0  0  0  0  0
   -5.0443    0.3155   -2.1960 C   0  0  0  0  0  0  0  0  0  0  0  0
   -4.8130    0.7470   -3.5045 C   0  0  0  0  0  0  0  0  0  0  0  0
   -5.8274    0.1673   -4.8127 Cl  0  0  0  0  0  0  0  0  0  0  0  0
   -3.7709    1.6387   -3.7697 C   0  0  0  0  0  0  0  0  0  0  0  0
   -2.9598    2.0990   -2.7292 C   0  0  0  0  0  0  0  0  0  0  0  0
   -2.7721    1.9775    1.1093 C   0  0  0  0  0  0  0  0  0  0  0  0
   -2.1892    1.0601    2.0099 C   0  0  0  0  0  0  0  0  0  0  0  0
   -2.7145    0.8954    3.2946 C   0  0  0  0  0  0  0  0  0  0  0  0
   -3.8249    1.6396    3.7008 C   0  0  0  0  0  0  0  0  0  0  0  0
   -4.4817    1.4284    5.3134 Cl  0  0  0  0  0  0  0  0  0  0  0  0
   -4.4107    2.5527    2.8207 C   0  0  0  0  0  0  0  0  0  0  0  0
   -3.8886    2.7217    1.5354 C   0  0  0  0  0  0  0  0  0  0  0  0
   -1.3053   -0.7328   -0.9840 C   0  0  0  0  0  0  0  0  0  0  0  0
   -0.4683   -1.9601   -0.6106 C   0  0  0  0  0  0  0  0  0  0  0  0
    2.1905   -2.5686    1.6703 C   0  0  0  0  0  0  0  0  0  0  0  0
    1.3052   -2.6797    2.5626 O   0  0  0  0  0  0  0  0  0  0  0  0
    2.7202   -1.2669    1.3645 N   0  0  0  0  0  0  0  0  0  0  0  0
    3.8527   -1.0051    0.4721 C   0  0  0  0  0  0  0  0  0  0  0  0
    3.9841    0.4704    0.5222 C   0  0  0  0  0  0  0  0  0  0  0  0
    4.8880    1.2745   -0.1735 C   0  0  0  0  0  0  0  0  0  0  0  0
    4.8169    2.6665   -0.0014 C   0  0  0  0  0  0  0  0  0  0  0  0
    3.8485    3.2272    0.8538 C   0  0  0  0  0  0  0  0  0  0  0  0
    2.9469    2.3988    1.5410 C   0  0  0  0  0  0  0  0  0  0  0  0
    3.0379    1.0185    1.3568 C   0  0  0  0  0  0  0  0  0  0  0  0
    2.1808   -0.0360    1.9463 C   0  0  0  0  0  0  0  0  0  0  0  0
    0.9343    1.1437   -0.8818 O   0  0  0  0  0  0  0  0  0  0  0  0
    0.4978    0.1650   -0.2187 C   0  0  0  0  0  0  0  0  0  0  0  0
    1.3317   -0.9155    0.0531 O   0  0  0  0  0  0  0  0  0  0  0  0
   -0.9294    0.1382    0.2234 C   0  0  0  0  0  0  0  0  0  0  0  0
   -1.0732   -0.7105    1.3058 F   0  0  0  0  0  0  0  0  0  0  0  0
   -1.7228   -0.3110   -0.8151 F   0  0  0  0  0  0  0  0  0  0  0  0
   -1.3344    1.4087    0.5909 F   0  0  0  0  0  0  0  0  0  0  0  0
    3.5213   -4.6557    2.5447 H   0  0  0  0  0  0  0  0  0  0  0  0
    3.1673   -5.7390    1.3260 H   0  0  0  0  0  0  0  0  0  0  0  0
    3.5969   -3.6314    0.4094 H   0  0  0  0  0  0  0  0  0  0  0  0
    0.5558   -4.2229    0.3020 H   0  0  0  0  0  0  0  0  0  0  0  0
    1.7792   -5.1949   -0.5365 H   0  0  0  0  0  0  0  0  0  0  0  0
    0.3867   -1.1647   -3.2927 H   0  0  0  0  0  0  0  0  0  0  0  0
    2.1043   -1.0739   -2.7649 H   0  0  0  0  0  0  0  0  0  0  0  0
    0.8249    1.1243   -2.6396 H   0  0  0  0  0  0  0  0  0  0  0  0
    1.6580    0.6090   -1.1302 H   0  0  0  0  0  0  0  0  0  0  0  0
   -2.2279    3.2909   -0.4474 H   0  0  0  0  0  0  0  0  0  0  0  0
   -4.4327    0.4065   -0.1530 H   0  0  0  0  0  0  0  0  0  0  0  0
   -5.8484   -0.3785   -1.9867 H   0  0  0  0  0  0  0  0  0  0  0  0
   -3.5865    1.9747   -4.7822 H   0  0  0  0  0  0  0  0  0  0  0  0
   -2.1532    2.7858   -2.9552 H   0  0  0  0  0  0  0  0  0  0  0  0
   -1.3259    0.4723    1.7339 H   0  0  0  0  0  0  0  0  0  0  0  0
   -2.2558    0.1884    3.9743 H   0  0  0  0  0  0  0  0  0  0  0  0
   -5.2716    3.1314    3.1302 H   0  0  0  0  0  0  0  0  0  0  0  0
   -4.3598    3.4303    0.8652 H   0  0  0  0  0  0  0  0  0  0  0  0
   -1.8043   -0.9057   -1.9621 H   0  0  0  0  0  0  0  0  0  0  0  0
   -2.0887   -0.6087   -0.2124 H   0  0  0  0  0  0  0  0  0  0  0  0
   -1.0882   -2.8693   -0.7660 H   0  0  0  0  0  0  0  0  0  0  0  0
   -0.2048   -1.8871    0.4638 H   0  0  0  0  0  0  0  0  0  0  0  0
    4.7738   -1.4901    0.8595 H   0  0  0  0  0  0  0  0  0  0  0  0
    3.6232   -1.3349   -0.5620 H   0  0  0  0  0  0  0  0  0  0  0  0
    5.6239    0.8365   -0.8352 H   0  0  0  0  0  0  0  0  0  0  0  0
    5.5065    3.3108   -0.5309 H   0  0  0  0  0  0  0  0  0  0  0  0
    3.7963    4.3009    0.9789 H   0  0  0  0  0  0  0  0  0  0  0  0
    2.1937    2.8222    2.1927 H   0  0  0  0  0  0  0  0  0  0  0  0
    2.2825   -0.0496    3.0523 H   0  0  0  0  0  0  0  0  0  0  0  0
    1.1237    0.1056    1.6386 H   0  0  0  0  0  0  0  0  0  0  0  0
    2.2960   -0.9186   -0.2575 H   0  0  0  0  0  0  0  0  0  0  0  0
  1  2  1  0
  2  3  1  0
  3  4  1  0
  4  5  2  0
  4  6  1  0
  6  7  1  0
  7  8  1  0
  8  9  1  0
  9 10  1  0
 10 11  2  0
 10 12  1  0
 12 13  1  0
 13 14  2  0
 14 15  1  0
 15 16  2  0
 16 17  1  0
 16 18  1  0
 18 19  2  0
 12 20  1  0
 20 21  2  0
 21 22  1  0
 22 23  2  0
 23 24  1  0
 23 25  1  0
 25 26  2  0
  9 27  1  0
 27 28  1  0
  2 29  1  0
 29 30  2  0
 29 31  1  0
 31 32  1  0
 32 33  1  0
 33 34  2  0
 34 35  1  0
 35 36  2  0
 36 37  1  0
 37 38  2  0
 38 39  1  0
 40 41  2  0
 41 42  1  0
 41 43  1  0
 43 44  1  0
 43 45  1  0
 43 46  1  0
 28  6  1  0
 39 31  1  0
 19 13  1  0
 26 20  1  0
 38 33  1  0
  1 47  1  0
  1 48  1  0
  2 49  1  6
  3 50  1  0
  3 51  1  0
  7 52  1  0
  7 53  1  0
  8 54  1  0
  8 55  1  0
 12 56  1  0
 14 57  1  0
 15 58  1  0
 18 59  1  0
 19 60  1  0
 21 61  1  0
 22 62  1  0
 25 63  1  0
 26 64  1  0
 27 65  1  0
 27 66  1  0
 28 67  1  0
 28 68  1  0
 32 69  1  0
 32 70  1  0
 34 71  1  0
 35 72  1  0
 36 73  1  0
 37 74  1  0
 39 75  1  0
 39 76  1  0
 42 77  1  0
M  END
$$$$
