
     RDKit          3D

 46 48  0  0  0  0  0  0  0  0999 V2000
   -5.9945    0.6240   -1.6147 C   0  0  0  0  0  0  0  0  0  0  0  0
   -6.2152    0.4928   -0.1123 C   0  0  0  0  0  0  0  0  0  0  0  0
   -5.1535   -0.3660    0.5070 C   0  0  0  0  0  0  0  0  0  0  0  0
   -5.2753   -1.6998    0.6728 N   0  0  0  0  0  0  0  0  0  0  0  0
   -4.1198   -2.1417    1.1540 N   0  0  0  0  0  0  0  0  0  0  0  0
   -3.3121   -1.0698    1.2585 C   0  0  0  0  0  0  0  0  0  0  0  0
   -3.9304    0.0566    0.8797 N   0  0  0  0  0  0  0  0  0  0  0  0
   -3.2984    1.3660    0.7485 C   0  0  0  0  0  0  0  0  0  0  0  0
   -2.0628    1.4395    1.6555 C   0  0  0  0  0  0  0  0  0  0  0  0
   -1.2549    0.2130    1.5320 N   0  0  0  0  0  0  0  0  0  0  0  0
    0.1787    0.3158    1.6143 C   0  0  0  0  0  0  0  0  0  0  0  0
    0.6987    1.2197    2.3248 O   0  0  0  0  0  0  0  0  0  0  0  0
    1.0699   -0.6650    0.8960 C   0  0  0  0  0  0  0  0  0  0  0  0
    2.3023    0.0112    0.2506 C   0  0  2  0  0  0  0  0  0  0  0  0
    1.9026    0.9700   -0.7860 N   0  0  0  0  0  0  0  0  0  0  0  0
    3.2370   -1.0531   -0.3543 C   0  0  0  0  0  0  0  0  0  0  0  0
    4.5074   -0.4350   -0.8854 C   0  0  0  0  0  0  0  0  0  0  0  0
    5.5674   -0.1545   -0.0062 C   0  0  0  0  0  0  0  0  0  0  0  0
    6.7395    0.4432   -0.4795 C   0  0  0  0  0  0  0  0  0  0  0  0
    7.7573    0.7061    0.3772 F   0  0  0  0  0  0  0  0  0  0  0  0
    6.8602    0.7724   -1.8328 C   0  0  0  0  0  0  0  0  0  0  0  0
    7.9958    1.3533   -2.2929 F   0  0  0  0  0  0  0  0  0  0  0  0
    5.8075    0.5067   -2.7128 C   0  0  0  0  0  0  0  0  0  0  0  0
    4.6324   -0.0911   -2.2451 C   0  0  0  0  0  0  0  0  0  0  0  0
    3.6200   -0.3303   -3.1167 F   0  0  0  0  0  0  0  0  0  0  0  0
   -1.8981   -1.0972    1.7445 C   0  0  0  0  0  0  0  0  0  0  0  0
   -6.7993    1.2496   -2.0548 H   0  0  0  0  0  0  0  0  0  0  0  0
   -5.0164    1.1073   -1.8223 H   0  0  0  0  0  0  0  0  0  0  0  0
   -6.0182   -0.3769   -2.0965 H   0  0  0  0  0  0  0  0  0  0  0  0
   -7.2111    0.0360    0.0722 H   0  0  0  0  0  0  0  0  0  0  0  0
   -6.2112    1.4996    0.3555 H   0  0  0  0  0  0  0  0  0  0  0  0
   -4.0121    2.1681    1.0322 H   0  0  0  0  0  0  0  0  0  0  0  0
   -2.9890    1.5153   -0.3081 H   0  0  0  0  0  0  0  0  0  0  0  0
   -1.4686    2.3349    1.3684 H   0  0  0  0  0  0  0  0  0  0  0  0
   -2.3841    1.5584    2.7131 H   0  0  0  0  0  0  0  0  0  0  0  0
    0.4950   -1.1849    0.1001 H   0  0  0  0  0  0  0  0  0  0  0  0
    1.4028   -1.4271    1.6330 H   0  0  0  0  0  0  0  0  0  0  0  0
    2.8687    0.5517    1.0426 H   0  0  0  0  0  0  0  0  0  0  0  0
    1.4004    1.7710   -0.3395 H   0  0  0  0  0  0  0  0  0  0  0  0
    1.2390    0.5105   -1.4518 H   0  0  0  0  0  0  0  0  0  0  0  0
    3.5012   -1.8015    0.4252 H   0  0  0  0  0  0  0  0  0  0  0  0
    2.7083   -1.6081   -1.1602 H   0  0  0  0  0  0  0  0  0  0  0  0
    5.4831   -0.3980    1.0459 H   0  0  0  0  0  0  0  0  0  0  0  0
    5.9009    0.7671   -3.7594 H   0  0  0  0  0  0  0  0  0  0  0  0
   -1.8908   -1.3383    2.8285 H   0  0  0  0  0  0  0  0  0  0  0  0
   -1.3602   -1.8987    1.1992 H   0  0  0  0  0  0  0  0  0  0  0  0
  1  2  1  0
  2  3  1  0
  3  4  2  0
  4  5  1  0
  5  6  2  0
  6  7  1  0
  7  8  1  0
  8  9  1  0
  9 10  1  0
 10 11  1  0
 11 12  2  0
 11 13  1  0
 13 14  1  0
 14 15  1  0
 14 16  1  0
 16 17  1  0
 17 18  2  0
 18 19  1  0
 19 20  1  0
 19 21  2  0
 21 22  1  0
 21 23  1  0
 23 24  2  0
 24 25  1  0
 10 26  1  0
  7  3  1  0
 24 17  1  0
 26  6  1  0
  1 27  1  0
  1 28  1  0
  1 29  1  0
  2 30  1  0
  2 31  1  0
  8 32  1  0
  8 33  1  0
  9 34  1  0
  9 35  1  0
 13 36  1  0
 13 37  1  0
 14 38  1  1
 15 39  1  0
 15 40  1  0
 16 41  1  0
 16 42  1  0
 18 43  1  0
 23 44  1  0
 26 45  1  0
 26 46  1  0
M  END
$$$$
