
     RDKit          3D

 56 59  0  0  0  0  0  0  0  0999 V2000
  -10.0510   -0.2957   -0.9185 C   0  0  0  0  0  0  0  0  0  0  0  0
   -9.1172    1.2061   -0.7344 S   0  0  0  0  0  0  0  0  0  0  0  0
   -9.5915    1.9471    0.4843 O   0  0  0  0  0  0  0  0  0  0  0  0
   -9.3251    2.0787   -1.9405 O   0  0  0  0  0  0  0  0  0  0  0  0
   -7.4089    0.8153   -0.5680 C   0  0  0  0  0  0  0  0  0  0  0  0
   -6.5964    0.7096   -1.7033 C   0  0  0  0  0  0  0  0  0  0  0  0
   -5.2427    0.3854   -1.5741 C   0  0  0  0  0  0  0  0  0  0  0  0
   -4.6817    0.1565   -0.3042 C   0  0  0  0  0  0  0  0  0  0  0  0
   -3.2491   -0.1881   -0.1542 C   0  0  0  0  0  0  0  0  0  0  0  0
   -2.6597   -0.4149    1.0453 N   0  0  0  0  0  0  0  0  0  0  0  0
   -1.3412   -0.7153    0.9113 C   0  0  0  0  0  0  0  0  0  0  0  0
   -0.8658   -0.7128   -0.3852 C   0  0  0  0  0  0  0  0  0  0  0  0
   -2.1331   -0.3367   -1.4190 S   0  0  0  0  0  0  0  0  0  0  0  0
    0.5609   -0.9598   -0.7620 C   0  0  0  0  0  0  0  0  0  0  0  0
    1.3799   -1.3510    0.4061 N   0  0  0  0  0  0  0  0  0  0  0  0
    2.8049   -1.5332    0.2431 C   0  0  0  0  0  0  0  0  0  0  0  0
    3.4239   -2.3357    0.9937 O   0  0  0  0  0  0  0  0  0  0  0  0
    3.5904   -0.7632   -0.7880 C   0  0  0  0  0  0  0  0  0  0  0  0
    3.7294    0.7297   -0.4046 C   0  0  2  0  0  0  0  0  0  0  0  0
    4.1274    1.5324   -1.5650 N   0  0  0  0  0  0  0  0  0  0  0  0
    4.6936    0.9696    0.7820 C   0  0  0  0  0  0  0  0  0  0  0  0
    6.1489    0.7087    0.4566 C   0  0  0  0  0  0  0  0  0  0  0  0
    6.9145    1.7074   -0.1721 C   0  0  0  0  0  0  0  0  0  0  0  0
    8.2571    1.4787   -0.4875 C   0  0  0  0  0  0  0  0  0  0  0  0
    8.9837    2.4461   -1.0993 F   0  0  0  0  0  0  0  0  0  0  0  0
    8.8509    0.2547   -0.1716 C   0  0  0  0  0  0  0  0  0  0  0  0
    8.1048   -0.7399    0.4647 C   0  0  0  0  0  0  0  0  0  0  0  0
    6.7609   -0.5177    0.7827 C   0  0  0  0  0  0  0  0  0  0  0  0
    6.0672   -1.4930    1.4199 F   0  0  0  0  0  0  0  0  0  0  0  0
    0.7351   -1.8535    1.6379 C   0  0  0  0  0  0  0  0  0  0  0  0
   -0.4305   -0.9532    2.0682 C   0  0  0  0  0  0  0  0  0  0  0  0
   -5.5066    0.2565    0.8306 C   0  0  0  0  0  0  0  0  0  0  0  0
   -6.8598    0.5809    0.6983 C   0  0  0  0  0  0  0  0  0  0  0  0
   -9.9025   -0.9364   -0.0249 H   0  0  0  0  0  0  0  0  0  0  0  0
   -9.7053   -0.8388   -1.8221 H   0  0  0  0  0  0  0  0  0  0  0  0
  -11.1286   -0.0532   -1.0235 H   0  0  0  0  0  0  0  0  0  0  0  0
   -7.0104    0.8750   -2.6898 H   0  0  0  0  0  0  0  0  0  0  0  0
   -4.6406    0.3129   -2.4701 H   0  0  0  0  0  0  0  0  0  0  0  0
    0.9488   -0.0184   -1.2016 H   0  0  0  0  0  0  0  0  0  0  0  0
    0.6037   -1.7608   -1.5300 H   0  0  0  0  0  0  0  0  0  0  0  0
    4.5945   -1.2195   -0.9202 H   0  0  0  0  0  0  0  0  0  0  0  0
    3.0834   -0.8574   -1.7712 H   0  0  0  0  0  0  0  0  0  0  0  0
    2.7319    1.0972   -0.0738 H   0  0  0  0  0  0  0  0  0  0  0  0
    4.9188    1.0615   -2.0617 H   0  0  0  0  0  0  0  0  0  0  0  0
    3.3260    1.5643   -2.2368 H   0  0  0  0  0  0  0  0  0  0  0  0
    4.5873    2.0267    1.1114 H   0  0  0  0  0  0  0  0  0  0  0  0
    4.3760    0.3541    1.6510 H   0  0  0  0  0  0  0  0  0  0  0  0
    6.4687    2.6628   -0.4204 H   0  0  0  0  0  0  0  0  0  0  0  0
    9.8906    0.0775   -0.4149 H   0  0  0  0  0  0  0  0  0  0  0  0
    8.5709   -1.6841    0.7155 H   0  0  0  0  0  0  0  0  0  0  0  0
    1.4624   -1.8916    2.4780 H   0  0  0  0  0  0  0  0  0  0  0  0
    0.3626   -2.8855    1.4574 H   0  0  0  0  0  0  0  0  0  0  0  0
   -0.9895   -1.4369    2.8977 H   0  0  0  0  0  0  0  0  0  0  0  0
   -0.0361    0.0232    2.4228 H   0  0  0  0  0  0  0  0  0  0  0  0
   -5.1074    0.0821    1.8219 H   0  0  0  0  0  0  0  0  0  0  0  0
   -7.4788    0.6458    1.5841 H   0  0  0  0  0  0  0  0  0  0  0  0
  1  2  1  0
  2  3  2  0
  2  4  2  0
  2  5  1  0
  5  6  2  0
  6  7  1  0
  7  8  2  0
  8  9  1  0
  9 10  2  0
 10 11  1  0
 11 12  2  0
 12 13  1  0
 12 14  1  0
 14 15  1  0
 15 16  1  0
 16 17  2  0
 16 18  1  0
 18 19  1  0
 19 20  1  0
 19 21  1  0
 21 22  1  0
 22 23  2  0
 23 24  1  0
 24 25  1  0
 24 26  2  0
 26 27  1  0
 27 28  2  0
 28 29  1  0
 15 30  1  0
 30 31  1  0
  8 32  1  0
 32 33  2  0
 33  5  1  0
 13  9  1  0
 28 22  1  0
 31 11  1  0
  1 34  1  0
  1 35  1  0
  1 36  1  0
  6 37  1  0
  7 38  1  0
 14 39  1  0
 14 40  1  0
 18 41  1  0
 18 42  1  0
 19 43  1  1
 20 44  1  0
 20 45  1  0
 21 46  1  0
 21 47  1  0
 23 48  1  0
 26 49  1  0
 27 50  1  0
 30 51  1  0
 30 52  1  0
 31 53  1  0
 31 54  1  0
 32 55  1  0
 33 56  1  0
M  END
$$$$
