
     RDKit          3D

 40 40  0  0  0  0  0  0  0  0999 V2000
    0.6878    0.0000    0.0000 Cl  0  0  0  0  0  0  0  0  0  0  0  0
    2.9242    1.2584   -2.3882 N   0  0  0  0  0  0  0  0  0  0  0  0
    3.7219    0.1630   -1.9352 C   0  0  0  0  0  0  0  0  0  0  0  0
    4.5331   -0.3851   -2.7280 O   0  0  0  0  0  0  0  0  0  0  0  0
    3.6210   -0.3302   -0.5157 C   0  0  0  0  0  0  0  0  0  0  0  0
    4.1403    0.7133    0.4930 C   0  0  0  0  0  0  0  0  0  0  0  0
    2.9276    0.9943    1.3197 C   0  0  0  0  0  0  0  0  0  0  0  0
    1.9027    0.3061    0.9575 N   0  0  0  0  0  0  0  0  0  0  0  0
    2.2286   -0.5087   -0.1256 N   0  0  0  0  0  0  0  0  0  0  0  0
    1.3185   -1.4568   -0.7039 C   0  0  0  0  0  0  0  0  0  0  0  0
    1.7230   -2.2492   -1.5971 O   0  0  0  0  0  0  0  0  0  0  0  0
   -0.1293   -1.4841   -0.3020 C   0  0  0  0  0  0  0  0  0  0  0  0
   -0.9777   -0.5855   -1.2230 C   0  0  2  0  0  0  0  0  0  0  0  0
   -0.5471    0.8131   -1.1228 N   0  0  0  0  0  0  0  0  0  0  0  0
   -2.4970   -0.7448   -0.9639 C   0  0  0  0  0  0  0  0  0  0  0  0
   -2.9332   -0.3180    0.4202 C   0  0  0  0  0  0  0  0  0  0  0  0
   -3.2888    1.0207    0.6622 C   0  0  0  0  0  0  0  0  0  0  0  0
   -3.6802    1.4298    1.9405 C   0  0  0  0  0  0  0  0  0  0  0  0
   -4.0154    2.7249    2.1622 F   0  0  0  0  0  0  0  0  0  0  0  0
   -3.7256    0.5055    2.9879 C   0  0  0  0  0  0  0  0  0  0  0  0
   -4.1049    0.9009    4.2283 F   0  0  0  0  0  0  0  0  0  0  0  0
   -3.3830   -0.8292    2.7564 C   0  0  0  0  0  0  0  0  0  0  0  0
   -2.9904   -1.2445    1.4798 C   0  0  0  0  0  0  0  0  0  0  0  0
   -2.6725   -2.5485    1.2793 F   0  0  0  0  0  0  0  0  0  0  0  0
   -0.6878    0.0000    0.0000 H   0  0  0  0  0  0  0  0  0  0  0  0
    3.0005    1.5925   -3.3744 H   0  0  0  0  0  0  0  0  0  0  0  0
    2.2615    1.7414   -1.7420 H   0  0  0  0  0  0  0  0  0  0  0  0
    4.1694   -1.2907   -0.3930 H   0  0  0  0  0  0  0  0  0  0  0  0
    4.4965    1.6495    0.0105 H   0  0  0  0  0  0  0  0  0  0  0  0
    4.9416    0.2844    1.1318 H   0  0  0  0  0  0  0  0  0  0  0  0
    2.8971    1.6913    2.1461 H   0  0  0  0  0  0  0  0  0  0  0  0
   -0.4948   -2.5319   -0.3687 H   0  0  0  0  0  0  0  0  0  0  0  0
   -0.2322   -1.1640    0.7561 H   0  0  0  0  0  0  0  0  0  0  0  0
   -0.7990   -0.9193   -2.2701 H   0  0  0  0  0  0  0  0  0  0  0  0
   -1.1486    1.4029   -1.7425 H   0  0  0  0  0  0  0  0  0  0  0  0
   -0.6640    1.1526   -0.1412 H   0  0  0  0  0  0  0  0  0  0  0  0
   -3.0551   -0.1535   -1.7228 H   0  0  0  0  0  0  0  0  0  0  0  0
   -2.7870   -1.8036   -1.1400 H   0  0  0  0  0  0  0  0  0  0  0  0
   -3.2585    1.7479   -0.1397 H   0  0  0  0  0  0  0  0  0  0  0  0
   -3.4232   -1.5446    3.5679 H   0  0  0  0  0  0  0  0  0  0  0  0
  2  3  1  0
  3  4  2  0
  3  5  1  0
  5  6  1  0
  6  7  1  0
  7  8  2  0
  8  9  1  0
  9 10  1  0
 10 11  2  0
 10 12  1  0
 12 13  1  0
 13 14  1  0
 13 15  1  0
 15 16  1  0
 16 17  2  0
 17 18  1  0
 18 19  1  0
 18 20  2  0
 20 21  1  0
 20 22  1  0
 22 23  2  0
 23 24  1  0
  9  5  1  0
 23 16  1  0
  1 25  1  0
  2 26  1  0
  2 27  1  0
  5 28  1  0
  6 29  1  0
  6 30  1  0
  7 31  1  0
 12 32  1  0
 12 33  1  0
 13 34  1  6
 14 35  1  0
 14 36  1  0
 15 37  1  0
 15 38  1  0
 17 39  1  0
 22 40  1  0
M  END
$$$$
