
     RDKit          3D

 51 53  0  0  0  0  0  0  0  0999 V2000
    2.6708   -2.1233    2.2009 C   0  0  0  0  0  0  0  0  0  0  0  0
    2.2232   -0.9779    1.2766 C   0  0  1  0  0  0  0  0  0  0  0  0
    0.7404   -1.0490    0.9301 C   0  0  0  0  0  0  0  0  0  0  0  0
    0.3284   -0.7872   -0.3885 C   0  0  0  0  0  0  0  0  0  0  0  0
   -1.0249   -0.8185   -0.7334 C   0  0  0  0  0  0  0  0  0  0  0  0
   -2.0017   -1.1091    0.2336 C   0  0  0  0  0  0  0  0  0  0  0  0
   -3.4410   -1.1401   -0.1316 C   0  0  0  0  0  0  0  0  0  0  0  0
   -4.2849   -2.1384    0.3834 C   0  0  0  0  0  0  0  0  0  0  0  0
   -5.6377   -2.1649    0.0421 C   0  0  0  0  0  0  0  0  0  0  0  0
   -6.1662   -1.2013   -0.8189 C   0  0  0  0  0  0  0  0  0  0  0  0
   -5.3413   -0.1972   -1.3557 C   0  0  0  0  0  0  0  0  0  0  0  0
   -5.8886    0.8406   -2.2640 C   0  0  0  0  0  0  0  0  0  0  0  0
   -7.0805    0.6173   -3.0225 N   0  0  0  0  0  0  0  0  0  0  0  0
   -5.2879    1.9423   -2.3864 O   0  0  0  0  0  0  0  0  0  0  0  0
   -3.9803   -0.1706   -0.9977 C   0  0  0  0  0  0  0  0  0  0  0  0
   -1.5941   -1.3653    1.5536 C   0  0  0  0  0  0  0  0  0  0  0  0
   -0.2406   -1.3323    1.8994 C   0  0  0  0  0  0  0  0  0  0  0  0
    2.6735    0.4210    1.7985 C   0  0  2  0  0  0  0  0  0  0  0  0
    2.0079    0.8203    3.0448 N   0  0  0  0  0  0  0  0  0  0  0  0
    2.4681    1.4825    0.7374 C   0  0  0  0  0  0  0  0  0  0  0  0
    1.3897    2.1380    0.7234 O   0  0  0  0  0  0  0  0  0  0  0  0
    3.4373    1.7043   -0.3042 N   0  0  0  0  0  0  0  0  0  0  0  0
    3.1551    2.5221   -1.4713 C   0  0  0  0  0  0  0  0  0  0  0  0
    4.3475    2.3391   -2.4002 C   0  0  0  0  0  0  0  0  0  0  0  0
    5.4670    1.7735   -1.5296 C   0  0  2  0  0  0  0  0  0  0  0  0
    6.2084    0.8318   -2.2234 F   0  0  0  0  0  0  0  0  0  0  0  0
    4.7811    1.1490   -0.3203 C   0  0  0  0  0  0  0  0  0  0  0  0
    2.3757   -3.1004    1.7618 H   0  0  0  0  0  0  0  0  0  0  0  0
    2.2274   -2.0451    3.2131 H   0  0  0  0  0  0  0  0  0  0  0  0
    3.7768   -2.1147    2.3057 H   0  0  0  0  0  0  0  0  0  0  0  0
    2.7878   -1.1572    0.3340 H   0  0  0  0  0  0  0  0  0  0  0  0
    1.0578   -0.5544   -1.1548 H   0  0  0  0  0  0  0  0  0  0  0  0
   -1.3057   -0.6293   -1.7619 H   0  0  0  0  0  0  0  0  0  0  0  0
   -3.8959   -2.9064    1.0402 H   0  0  0  0  0  0  0  0  0  0  0  0
   -6.2808   -2.9345    0.4493 H   0  0  0  0  0  0  0  0  0  0  0  0
   -7.2243   -1.2342   -1.0397 H   0  0  0  0  0  0  0  0  0  0  0  0
   -7.4755    1.3860   -3.6085 H   0  0  0  0  0  0  0  0  0  0  0  0
   -7.5268   -0.3237   -3.0813 H   0  0  0  0  0  0  0  0  0  0  0  0
   -3.3401    0.6113   -1.3881 H   0  0  0  0  0  0  0  0  0  0  0  0
   -2.3252   -1.5696    2.3258 H   0  0  0  0  0  0  0  0  0  0  0  0
    0.0313   -1.5143    2.9297 H   0  0  0  0  0  0  0  0  0  0  0  0
    3.7607    0.3665    2.0185 H   0  0  0  0  0  0  0  0  0  0  0  0
    2.2579    0.1538    3.8091 H   0  0  0  0  0  0  0  0  0  0  0  0
    0.9702    0.8142    2.9290 H   0  0  0  0  0  0  0  0  0  0  0  0
    2.2195    2.1820   -1.9667 H   0  0  0  0  0  0  0  0  0  0  0  0
    3.0569    3.5863   -1.1656 H   0  0  0  0  0  0  0  0  0  0  0  0
    4.6468    3.3016   -2.8690 H   0  0  0  0  0  0  0  0  0  0  0  0
    4.0856    1.6101   -3.1987 H   0  0  0  0  0  0  0  0  0  0  0  0
    6.1347    2.5994   -1.1987 H   0  0  0  0  0  0  0  0  0  0  0  0
    5.3259    1.4215    0.6093 H   0  0  0  0  0  0  0  0  0  0  0  0
    4.7306    0.0442   -0.4235 H   0  0  0  0  0  0  0  0  0  0  0  0
  1  2  1  0
  2  3  1  0
  3  4  2  0
  4  5  1  0
  5  6  2  0
  6  7  1  0
  7  8  2  0
  8  9  1  0
  9 10  2  0
 10 11  1  0
 11 12  1  0
 12 13  1  0
 12 14  2  0
 11 15  2  0
  6 16  1  0
 16 17  2  0
  2 18  1  0
 18 19  1  0
 18 20  1  0
 20 21  2  0
 20 22  1  0
 22 23  1  0
 23 24  1  0
 24 25  1  0
 25 26  1  0
 25 27  1  0
 17  3  1  0
 27 22  1  0
 15  7  1  0
  1 28  1  0
  1 29  1  0
  1 30  1  0
  2 31  1  6
  4 32  1  0
  5 33  1  0
  8 34  1  0
  9 35  1  0
 10 36  1  0
 13 37  1  0
 13 38  1  0
 15 39  1  0
 16 40  1  0
 17 41  1  0
 18 42  1  1
 19 43  1  0
 19 44  1  0
 23 45  1  0
 23 46  1  0
 24 47  1  0
 24 48  1  0
 25 49  1  1
 27 50  1  0
 27 51  1  0
M  END
$$$$
