
     RDKit          3D

 57 58  0  0  0  0  0  0  0  0999 V2000
    1.1562    0.6391   -2.8010 C   0  0  0  0  0  0  0  0  0  0  0  0
    0.8437    1.1343   -1.3659 C   0  0  0  0  0  0  0  0  0  0  0  0
    1.9893    2.0614   -0.8912 C   0  0  0  0  0  0  0  0  0  0  0  0
   -0.4560    1.9907   -1.3783 C   0  0  0  0  0  0  0  0  0  0  0  0
   -1.6756    1.2304   -1.8258 C   0  0  0  0  0  0  0  0  0  0  0  0
   -1.9740    1.2183   -3.0498 O   0  0  0  0  0  0  0  0  0  0  0  0
   -2.4677    0.5094   -0.8628 N   0  0  0  0  0  0  0  0  0  0  0  0
   -3.5649   -0.4281   -1.1857 C   0  0  0  0  0  0  0  0  0  0  0  0
   -4.6368    0.2683   -2.0542 C   0  0  0  0  0  0  0  0  0  0  0  0
   -2.9740   -1.6192   -1.9748 C   0  0  0  0  0  0  0  0  0  0  0  0
   -4.2439   -0.8663    0.1271 C   0  0  0  0  0  0  0  0  0  0  0  0
   -4.4842   -2.2208    0.4617 C   0  0  0  0  0  0  0  0  0  0  0  0
   -5.1250   -2.5583    1.6579 C   0  0  0  0  0  0  0  0  0  0  0  0
   -5.5456   -1.5606    2.5368 C   0  0  0  0  0  0  0  0  0  0  0  0
   -5.3301   -0.2199    2.2213 C   0  0  0  0  0  0  0  0  0  0  0  0
   -4.6906    0.1260    1.0283 C   0  0  0  0  0  0  0  0  0  0  0  0
    0.6458   -0.0078   -0.4315 N   0  0  0  0  0  0  0  0  0  0  0  0
    1.8538   -0.7753   -0.0759 C   0  0  0  0  0  0  0  0  0  0  0  0
    2.4590   -0.2399    1.1938 C   0  0  0  0  0  0  0  0  0  0  0  0
    1.6903    0.0906    2.1378 O   0  0  0  0  0  0  0  0  0  0  0  0
    3.8859   -0.1357    1.3711 N   0  0  0  0  0  0  0  0  0  0  0  0
    4.8701   -0.6728    0.4433 C   0  0  0  0  0  0  0  0  0  0  0  0
    6.2311   -0.3531    1.0490 C   0  0  0  0  0  0  0  0  0  0  0  0
    5.9655    0.0055    2.5082 C   0  0  0  0  0  0  0  0  0  0  0  0
    4.4937    0.4117    2.5750 C   0  0  1  0  0  0  0  0  0  0  0  0
    4.3434    1.8759    2.5861 C   0  0  0  0  0  0  0  0  0  0  0  0
    4.2238    3.0269    2.5934 N   0  0  0  0  0  0  0  0  0  0  0  0
    0.4183   -0.1236   -3.1283 H   0  0  0  0  0  0  0  0  0  0  0  0
    1.1249    1.4864   -3.5195 H   0  0  0  0  0  0  0  0  0  0  0  0
    2.1672    0.1880   -2.8680 H   0  0  0  0  0  0  0  0  0  0  0  0
    2.0438    2.9734   -1.5244 H   0  0  0  0  0  0  0  0  0  0  0  0
    1.8231    2.3783    0.1608 H   0  0  0  0  0  0  0  0  0  0  0  0
    2.9768    1.5608   -0.9595 H   0  0  0  0  0  0  0  0  0  0  0  0
   -0.3262    2.8721   -2.0455 H   0  0  0  0  0  0  0  0  0  0  0  0
   -0.6443    2.3927   -0.3584 H   0  0  0  0  0  0  0  0  0  0  0  0
   -2.1569    0.5824    0.1333 H   0  0  0  0  0  0  0  0  0  0  0  0
   -5.5546   -0.3569   -2.1105 H   0  0  0  0  0  0  0  0  0  0  0  0
   -4.9102    1.2558   -1.6255 H   0  0  0  0  0  0  0  0  0  0  0  0
   -4.2891    0.4264   -3.0953 H   0  0  0  0  0  0  0  0  0  0  0  0
   -2.2383   -2.1703   -1.3504 H   0  0  0  0  0  0  0  0  0  0  0  0
   -2.4469   -1.2747   -2.8881 H   0  0  0  0  0  0  0  0  0  0  0  0
   -3.7751   -2.3138   -2.3072 H   0  0  0  0  0  0  0  0  0  0  0  0
   -4.1843   -3.0318   -0.1847 H   0  0  0  0  0  0  0  0  0  0  0  0
   -5.2979   -3.5986    1.9026 H   0  0  0  0  0  0  0  0  0  0  0  0
   -6.0419   -1.8268    3.4611 H   0  0  0  0  0  0  0  0  0  0  0  0
   -5.6610    0.5545    2.9013 H   0  0  0  0  0  0  0  0  0  0  0  0
   -4.5408    1.1754    0.8072 H   0  0  0  0  0  0  0  0  0  0  0  0
   -0.0364   -0.6798   -0.8550 H   0  0  0  0  0  0  0  0  0  0  0  0
    1.5739   -1.8338    0.1200 H   0  0  0  0  0  0  0  0  0  0  0  0
    2.5817   -0.7981   -0.9076 H   0  0  0  0  0  0  0  0  0  0  0  0
    4.7347   -1.7721    0.3488 H   0  0  0  0  0  0  0  0  0  0  0  0
    4.7762   -0.1880   -0.5519 H   0  0  0  0  0  0  0  0  0  0  0  0
    6.6749    0.5244    0.5289 H   0  0  0  0  0  0  0  0  0  0  0  0
    6.9258   -1.2168    0.9644 H   0  0  0  0  0  0  0  0  0  0  0  0
    6.6577    0.8018    2.8627 H   0  0  0  0  0  0  0  0  0  0  0  0
    6.1224   -0.8991    3.1364 H   0  0  0  0  0  0  0  0  0  0  0  0
    4.0194   -0.0192    3.4837 H   0  0  0  0  0  0  0  0  0  0  0  0
  1  2  1  0
  2  3  1  0
  2  4  1  0
  4  5  1  0
  5  6  2  0
  5  7  1  0
  7  8  1  0
  8  9  1  0
  8 10  1  0
  8 11  1  0
 11 12  2  0
 12 13  1  0
 13 14  2  0
 14 15  1  0
 15 16  2  0
  2 17  1  0
 17 18  1  0
 18 19  1  0
 19 20  2  0
 19 21  1  0
 21 22  1  0
 22 23  1  0
 23 24  1  0
 24 25  1  0
 25 26  1  0
 26 27  3  0
 16 11  1  0
 25 21  1  0
  1 28  1  0
  1 29  1  0
  1 30  1  0
  3 31  1  0
  3 32  1  0
  3 33  1  0
  4 34  1  0
  4 35  1  0
  7 36  1  0
  9 37  1  0
  9 38  1  0
  9 39  1  0
 10 40  1  0
 10 41  1  0
 10 42  1  0
 12 43  1  0
 13 44  1  0
 14 45  1  0
 15 46  1  0
 16 47  1  0
 17 48  1  0
 18 49  1  0
 18 50  1  0
 22 51  1  0
 22 52  1  0
 23 53  1  0
 23 54  1  0
 24 55  1  0
 24 56  1  0
 25 57  1  1
M  END
$$$$
