
     RDKit          3D

 68 72  0  0  0  0  0  0  0  0999 V2000
    7.5429   -1.3333    2.6181 C   0  0  0  0  0  0  0  0  0  0  0  0
    7.1847   -0.2009    1.8323 O   0  0  0  0  0  0  0  0  0  0  0  0
    6.2169   -0.2043    0.8136 C   0  0  0  0  0  0  0  0  0  0  0  0
    5.5075   -1.3771    0.4876 C   0  0  0  0  0  0  0  0  0  0  0  0
    4.5474   -1.3717   -0.5230 C   0  0  0  0  0  0  0  0  0  0  0  0
    4.2754   -0.1986   -1.2353 C   0  0  0  0  0  0  0  0  0  0  0  0
    3.2104   -0.1841   -2.3023 C   0  0  0  0  0  0  0  0  0  0  0  0
    1.9429    0.3462   -1.7581 N   0  0  0  0  0  0  0  0  0  0  0  0
    1.0918   -0.4952   -1.0755 C   0  0  0  0  0  0  0  0  0  0  0  0
    1.3650   -1.7181   -0.9413 O   0  0  0  0  0  0  0  0  0  0  0  0
   -0.0818    0.0358   -0.5430 C   0  0  0  0  0  0  0  0  0  0  0  0
   -0.3634    1.3530   -0.7067 C   0  0  0  0  0  0  0  0  0  0  0  0
   -1.5609    1.6616   -0.1744 N   0  0  0  0  0  0  0  0  0  0  0  0
   -1.9733    0.4723    0.3286 C   0  0  0  0  0  0  0  0  0  0  0  0
   -3.2570    0.3066    0.9387 N   0  0  0  0  0  0  0  0  0  0  0  0
   -3.3665    0.3619    2.4007 C   0  0  0  0  0  0  0  0  0  0  0  0
   -4.8318    0.4506    2.8425 C   0  0  0  0  0  0  0  0  0  0  0  0
   -5.5630    1.5598    2.0706 C   0  0  0  0  0  0  0  0  0  0  0  0
   -5.3940    1.4674    0.5246 C   0  0  1  0  0  0  0  0  0  0  0  0
   -4.8848    2.7369   -0.0016 N   0  0  0  0  0  0  0  0  0  0  0  0
   -4.4604    0.3157    0.1022 C   0  0  0  0  0  0  0  0  0  0  0  0
   -1.0990   -0.5487    0.1270 N   0  0  0  0  0  0  0  0  0  0  0  0
   -1.3215   -1.9624    0.4548 C   0  0  0  0  0  0  0  0  0  0  0  0
   -2.3186   -2.5781   -0.5012 C   0  0  0  0  0  0  0  0  0  0  0  0
   -2.0315   -2.5666   -1.8785 C   0  0  0  0  0  0  0  0  0  0  0  0
   -2.9313   -3.1090   -2.7982 C   0  0  0  0  0  0  0  0  0  0  0  0
   -4.1253   -3.6777   -2.3561 C   0  0  0  0  0  0  0  0  0  0  0  0
   -4.4195   -3.7117   -0.9922 C   0  0  0  0  0  0  0  0  0  0  0  0
   -3.5254   -3.1723   -0.0588 C   0  0  0  0  0  0  0  0  0  0  0  0
   -3.9662   -3.2684    1.6438 Cl  0  0  0  0  0  0  0  0  0  0  0  0
    0.4714    2.2030   -1.3624 N   0  0  0  0  0  0  0  0  0  0  0  0
    0.1078    3.6140   -1.5519 C   0  0  0  0  0  0  0  0  0  0  0  0
    1.6277    1.6878   -1.9037 C   0  0  0  0  0  0  0  0  0  0  0  0
    2.4037    2.4505   -2.5461 O   0  0  0  0  0  0  0  0  0  0  0  0
    4.9734    0.9745   -0.9174 C   0  0  0  0  0  0  0  0  0  0  0  0
    5.9469    0.9894    0.1012 C   0  0  0  0  0  0  0  0  0  0  0  0
    6.6623    2.2589    0.4022 C   0  0  0  0  0  0  0  0  0  0  0  0
    6.3908    3.3080   -0.2430 O   0  0  0  0  0  0  0  0  0  0  0  0
    7.6382    2.3155    1.3935 O   0  0  0  0  0  0  0  0  0  0  0  0
    7.9439   -2.1387    1.9673 H   0  0  0  0  0  0  0  0  0  0  0  0
    8.3300   -1.0373    3.3415 H   0  0  0  0  0  0  0  0  0  0  0  0
    6.6607   -1.7001    3.1842 H   0  0  0  0  0  0  0  0  0  0  0  0
    5.6897   -2.3041    1.0133 H   0  0  0  0  0  0  0  0  0  0  0  0
    4.0170   -2.2879   -0.7502 H   0  0  0  0  0  0  0  0  0  0  0  0
    3.5600    0.4152   -3.1710 H   0  0  0  0  0  0  0  0  0  0  0  0
    3.0573   -1.2068   -2.7131 H   0  0  0  0  0  0  0  0  0  0  0  0
   -2.9015   -0.5400    2.8494 H   0  0  0  0  0  0  0  0  0  0  0  0
   -2.8235    1.2570    2.7762 H   0  0  0  0  0  0  0  0  0  0  0  0
   -5.3362   -0.5238    2.6625 H   0  0  0  0  0  0  0  0  0  0  0  0
   -4.8794    0.6600    3.9330 H   0  0  0  0  0  0  0  0  0  0  0  0
   -6.6440    1.5153    2.3262 H   0  0  0  0  0  0  0  0  0  0  0  0
   -5.1881    2.5389    2.4435 H   0  0  0  0  0  0  0  0  0  0  0  0
   -6.3930    1.2716    0.0711 H   0  0  0  0  0  0  0  0  0  0  0  0
   -4.8632    2.6802   -1.0461 H   0  0  0  0  0  0  0  0  0  0  0  0
   -5.5776    3.4872    0.2259 H   0  0  0  0  0  0  0  0  0  0  0  0
   -4.9944   -0.6502    0.2289 H   0  0  0  0  0  0  0  0  0  0  0  0
   -4.1974    0.3957   -0.9763 H   0  0  0  0  0  0  0  0  0  0  0  0
   -1.6548   -2.0321    1.5070 H   0  0  0  0  0  0  0  0  0  0  0  0
   -0.3797   -2.5405    0.4180 H   0  0  0  0  0  0  0  0  0  0  0  0
   -1.1107   -2.1315   -2.2442 H   0  0  0  0  0  0  0  0  0  0  0  0
   -2.7018   -3.0880   -3.8558 H   0  0  0  0  0  0  0  0  0  0  0  0
   -4.8218   -4.0970   -3.0705 H   0  0  0  0  0  0  0  0  0  0  0  0
   -5.3467   -4.1613   -0.6598 H   0  0  0  0  0  0  0  0  0  0  0  0
    1.0066    4.2634   -1.4816 H   0  0  0  0  0  0  0  0  0  0  0  0
   -0.6013    3.9584   -0.7691 H   0  0  0  0  0  0  0  0  0  0  0  0
   -0.3624    3.7460   -2.5490 H   0  0  0  0  0  0  0  0  0  0  0  0
    4.7561    1.8787   -1.4713 H   0  0  0  0  0  0  0  0  0  0  0  0
    8.1245    3.1804    1.5975 H   0  0  0  0  0  0  0  0  0  0  0  0
  1  2  1  0
  2  3  1  0
  3  4  2  0
  4  5  1  0
  5  6  2  0
  6  7  1  0
  7  8  1  0
  8  9  1  0
  9 10  2  0
  9 11  1  0
 11 12  2  0
 12 13  1  0
 13 14  2  0
 14 15  1  0
 15 16  1  0
 16 17  1  0
 17 18  1  0
 18 19  1  0
 19 20  1  0
 19 21  1  0
 14 22  1  0
 22 23  1  0
 23 24  1  0
 24 25  2  0
 25 26  1  0
 26 27  2  0
 27 28  1  0
 28 29  2  0
 29 30  1  0
 12 31  1  0
 31 32  1  0
 31 33  1  0
 33 34  2  0
  6 35  1  0
 35 36  2  0
 36 37  1  0
 37 38  2  0
 37 39  1  0
 36  3  1  0
 33  8  1  0
 22 11  1  0
 29 24  1  0
 21 15  1  0
  1 40  1  0
  1 41  1  0
  1 42  1  0
  4 43  1  0
  5 44  1  0
  7 45  1  0
  7 46  1  0
 16 47  1  0
 16 48  1  0
 17 49  1  0
 17 50  1  0
 18 51  1  0
 18 52  1  0
 19 53  1  6
 20 54  1  0
 20 55  1  0
 21 56  1  0
 21 57  1  0
 23 58  1  0
 23 59  1  0
 25 60  1  0
 26 61  1  0
 27 62  1  0
 28 63  1  0
 32 64  1  0
 32 65  1  0
 32 66  1  0
 35 67  1  0
 39 68  1  0
M  END
$$$$
