
     RDKit          3D

 53 56  0  0  0  0  0  0  0  0999 V2000
    1.3566    4.5257   -0.7861 C   0  0  0  0  0  0  0  0  0  0  0  0
    1.0386    3.1098   -0.6319 N   0  0  0  0  0  0  0  0  0  0  0  0
    1.7167    2.0454   -1.1216 C   0  0  0  0  0  0  0  0  0  0  0  0
    2.8033    2.1534   -1.7522 O   0  0  0  0  0  0  0  0  0  0  0  0
    1.0987    0.8540   -0.8825 N   0  0  0  0  0  0  0  0  0  0  0  0
    1.5810   -0.4777   -1.2780 C   0  0  0  0  0  0  0  0  0  0  0  0
    3.0442   -0.6564   -0.9375 C   0  0  0  0  0  0  0  0  0  0  0  0
    3.9864   -0.7762   -1.9746 C   0  0  0  0  0  0  0  0  0  0  0  0
    5.3438   -0.9332   -1.6843 C   0  0  0  0  0  0  0  0  0  0  0  0
    5.7765   -0.9730   -0.3582 C   0  0  0  0  0  0  0  0  0  0  0  0
    4.8535   -0.8561    0.6833 C   0  0  0  0  0  0  0  0  0  0  0  0
    3.4887   -0.6980    0.4051 C   0  0  0  0  0  0  0  0  0  0  0  0
    2.5647   -0.5777    1.5077 C   0  0  0  0  0  0  0  0  0  0  0  0
    1.8239   -0.4798    2.3914 N   0  0  0  0  0  0  0  0  0  0  0  0
   -0.0607    1.2082   -0.2683 C   0  0  0  0  0  0  0  0  0  0  0  0
   -1.1600    0.4409    0.1564 C   0  0  0  0  0  0  0  0  0  0  0  0
   -1.2612   -0.9684   -0.0835 N   0  0  0  0  0  0  0  0  0  0  0  0
   -1.7124   -1.4535   -1.3905 C   0  0  0  0  0  0  0  0  0  0  0  0
   -3.1025   -2.0793   -1.2511 C   0  0  0  0  0  0  0  0  0  0  0  0
   -3.1050   -3.1517   -0.1519 C   0  0  0  0  0  0  0  0  0  0  0  0
   -2.6196   -2.5709    1.1948 C   0  0  1  0  0  0  0  0  0  0  0  0
   -2.5629   -3.6081    2.2264 N   0  0  0  0  0  0  0  0  0  0  0  0
   -1.2382   -1.9138    1.0364 C   0  0  0  0  0  0  0  0  0  0  0  0
   -2.2292    1.1266    0.7680 C   0  0  0  0  0  0  0  0  0  0  0  0
   -2.1870    2.5341    0.9089 C   0  0  0  0  0  0  0  0  0  0  0  0
   -3.3160    3.2623    1.5743 C   0  0  0  0  0  0  0  0  0  0  0  0
   -3.2458    3.0940    2.9634 O   0  0  0  0  0  0  0  0  0  0  0  0
   -1.1046    3.2360    0.4607 N   0  0  0  0  0  0  0  0  0  0  0  0
   -0.0738    2.5686   -0.1128 C   0  0  0  0  0  0  0  0  0  0  0  0
    0.9290    5.1080    0.0573 H   0  0  0  0  0  0  0  0  0  0  0  0
    0.9325    4.8995   -1.7413 H   0  0  0  0  0  0  0  0  0  0  0  0
    2.4574    4.6719   -0.7915 H   0  0  0  0  0  0  0  0  0  0  0  0
    1.3963   -0.6203   -2.3645 H   0  0  0  0  0  0  0  0  0  0  0  0
    1.0374   -1.2755   -0.7451 H   0  0  0  0  0  0  0  0  0  0  0  0
    3.6717   -0.7435   -3.0102 H   0  0  0  0  0  0  0  0  0  0  0  0
    6.0616   -1.0229   -2.4894 H   0  0  0  0  0  0  0  0  0  0  0  0
    6.8290   -1.0943   -0.1367 H   0  0  0  0  0  0  0  0  0  0  0  0
    5.2048   -0.8883    1.7079 H   0  0  0  0  0  0  0  0  0  0  0  0
   -1.7465   -0.6244   -2.1313 H   0  0  0  0  0  0  0  0  0  0  0  0
   -0.9997   -2.2190   -1.7668 H   0  0  0  0  0  0  0  0  0  0  0  0
   -3.8412   -1.2867   -1.0003 H   0  0  0  0  0  0  0  0  0  0  0  0
   -3.4007   -2.5381   -2.2182 H   0  0  0  0  0  0  0  0  0  0  0  0
   -2.4481   -3.9944   -0.4620 H   0  0  0  0  0  0  0  0  0  0  0  0
   -4.1373   -3.5468   -0.0357 H   0  0  0  0  0  0  0  0  0  0  0  0
   -3.3418   -1.7914    1.5240 H   0  0  0  0  0  0  0  0  0  0  0  0
   -1.9673   -4.4004    1.8906 H   0  0  0  0  0  0  0  0  0  0  0  0
   -3.5275   -3.9852    2.3734 H   0  0  0  0  0  0  0  0  0  0  0  0
   -0.4708   -2.6926    0.8336 H   0  0  0  0  0  0  0  0  0  0  0  0
   -0.9568   -1.3975    1.9807 H   0  0  0  0  0  0  0  0  0  0  0  0
   -3.0982    0.5775    1.1069 H   0  0  0  0  0  0  0  0  0  0  0  0
   -3.2888    4.3446    1.3127 H   0  0  0  0  0  0  0  0  0  0  0  0
   -4.2847    2.8577    1.2115 H   0  0  0  0  0  0  0  0  0  0  0  0
   -2.5077    3.6766    3.2827 H   0  0  0  0  0  0  0  0  0  0  0  0
  1  2  1  0
  2  3  1  0
  3  4  2  0
  3  5  1  0
  5  6  1  0
  6  7  1  0
  7  8  2  0
  8  9  1  0
  9 10  2  0
 10 11  1  0
 11 12  2  0
 12 13  1  0
 13 14  3  0
  5 15  1  0
 15 16  2  0
 16 17  1  0
 17 18  1  0
 18 19  1  0
 19 20  1  0
 20 21  1  0
 21 22  1  0
 21 23  1  0
 16 24  1  0
 24 25  2  0
 25 26  1  0
 26 27  1  0
 25 28  1  0
 28 29  2  0
 29  2  1  0
 12  7  1  0
 29 15  1  0
 23 17  1  0
  1 30  1  0
  1 31  1  0
  1 32  1  0
  6 33  1  0
  6 34  1  0
  8 35  1  0
  9 36  1  0
 10 37  1  0
 11 38  1  0
 18 39  1  0
 18 40  1  0
 19 41  1  0
 19 42  1  0
 20 43  1  0
 20 44  1  0
 21 45  1  1
 22 46  1  0
 22 47  1  0
 23 48  1  0
 23 49  1  0
 24 50  1  0
 26 51  1  0
 26 52  1  0
 27 53  1  0
M  END
$$$$
