
     RDKit          3D

 50 53  0  0  0  0  0  0  0  0999 V2000
    4.2774   -0.2742   -1.2615 O   0  0  0  0  0  0  0  0  0  0  0  0
    3.9926   -0.3936   -0.0379 C   0  0  0  0  0  0  0  0  0  0  0  0
    2.6056   -0.0137    0.4481 C   0  0  2  0  0  0  0  0  0  0  0  0
    1.5133   -0.1998   -0.5958 C   0  0  0  0  0  0  0  0  0  0  0  0
    0.4180    0.7399   -0.1206 C   0  0  2  0  0  0  0  0  0  0  0  0
   -0.4656    1.2065   -1.2262 N   0  0  0  0  0  0  0  0  0  0  0  0
   -1.1076    0.1060   -1.9845 C   0  0  0  0  0  0  0  0  0  0  0  0
   -2.1731   -0.6283   -1.1611 C   0  0  0  0  0  0  0  0  0  0  0  0
   -3.1251    0.3343   -0.5986 N   0  0  0  0  0  0  0  0  0  0  0  0
   -4.4986   -0.0528   -0.4025 C   0  0  0  0  0  0  0  0  0  0  0  0
   -5.2666   -0.5006   -1.4886 C   0  0  0  0  0  0  0  0  0  0  0  0
   -6.6006   -0.8729   -1.3051 C   0  0  0  0  0  0  0  0  0  0  0  0
   -7.1855   -0.8014   -0.0365 C   0  0  0  0  0  0  0  0  0  0  0  0
   -8.8671   -1.2785    0.1546 Cl  0  0  0  0  0  0  0  0  0  0  0  0
   -6.4266   -0.3510    1.0566 C   0  0  0  0  0  0  0  0  0  0  0  0
   -7.1226   -0.2468    2.6681 Cl  0  0  0  0  0  0  0  0  0  0  0  0
   -5.0902    0.0222    0.8702 C   0  0  0  0  0  0  0  0  0  0  0  0
   -2.5927    1.5223    0.0756 C   0  0  0  0  0  0  0  0  0  0  0  0
   -1.4961    2.1750   -0.7794 C   0  0  0  0  0  0  0  0  0  0  0  0
    1.2198    1.8877    0.5078 C   0  0  0  0  0  0  0  0  0  0  0  0
    2.5436    1.3821    0.8910 N   0  0  0  0  0  0  0  0  0  0  0  0
    5.0142   -0.8238    0.8840 N   0  0  0  0  0  0  0  0  0  0  0  0
    6.3275   -1.2409    0.4135 C   0  0  0  0  0  0  0  0  0  0  0  0
    7.0707   -1.8601    1.5848 C   0  0  0  0  0  0  0  0  0  0  0  0
    6.4471   -1.1013    3.1093 S   0  0  0  0  0  0  0  0  0  0  0  0
    4.8343   -0.8063    2.3301 C   0  0  0  0  0  0  0  0  0  0  0  0
    2.3420   -0.6600    1.3136 H   0  0  0  0  0  0  0  0  0  0  0  0
    1.1670   -1.2562   -0.6275 H   0  0  0  0  0  0  0  0  0  0  0  0
    1.8621    0.1189   -1.6034 H   0  0  0  0  0  0  0  0  0  0  0  0
   -0.1647    0.2285    0.6770 H   0  0  0  0  0  0  0  0  0  0  0  0
   -1.5915    0.5280   -2.8930 H   0  0  0  0  0  0  0  0  0  0  0  0
   -0.3570   -0.6197   -2.3593 H   0  0  0  0  0  0  0  0  0  0  0  0
   -2.6876   -1.3595   -1.8202 H   0  0  0  0  0  0  0  0  0  0  0  0
   -1.6984   -1.2032   -0.3384 H   0  0  0  0  0  0  0  0  0  0  0  0
   -4.8366   -0.5458   -2.4810 H   0  0  0  0  0  0  0  0  0  0  0  0
   -7.1812   -1.2139   -2.1529 H   0  0  0  0  0  0  0  0  0  0  0  0
   -4.5098    0.3584    1.7200 H   0  0  0  0  0  0  0  0  0  0  0  0
   -2.1924    1.2399    1.0719 H   0  0  0  0  0  0  0  0  0  0  0  0
   -3.4027    2.2679    0.2337 H   0  0  0  0  0  0  0  0  0  0  0  0
   -1.0422    3.0164   -0.2162 H   0  0  0  0  0  0  0  0  0  0  0  0
   -1.9706    2.6340   -1.6747 H   0  0  0  0  0  0  0  0  0  0  0  0
    1.3311    2.7255   -0.2193 H   0  0  0  0  0  0  0  0  0  0  0  0
    0.6977    2.2722    1.4100 H   0  0  0  0  0  0  0  0  0  0  0  0
    3.2657    1.9505    0.3864 H   0  0  0  0  0  0  0  0  0  0  0  0
    6.2273   -1.9883   -0.4036 H   0  0  0  0  0  0  0  0  0  0  0  0
    6.8805   -0.3539    0.0353 H   0  0  0  0  0  0  0  0  0  0  0  0
    8.1649   -1.6954    1.4914 H   0  0  0  0  0  0  0  0  0  0  0  0
    6.8674   -2.9517    1.6260 H   0  0  0  0  0  0  0  0  0  0  0  0
    4.1269   -1.6064    2.6332 H   0  0  0  0  0  0  0  0  0  0  0  0
    4.4561    0.1838    2.6605 H   0  0  0  0  0  0  0  0  0  0  0  0
  1  2  2  0
  2  3  1  0
  3  4  1  0
  4  5  1  0
  5  6  1  0
  6  7  1  0
  7  8  1  0
  8  9  1  0
  9 10  1  0
 10 11  2  0
 11 12  1  0
 12 13  2  0
 13 14  1  0
 13 15  1  0
 15 16  1  0
 15 17  2  0
  9 18  1  0
 18 19  1  0
  5 20  1  0
 20 21  1  0
  2 22  1  0
 22 23  1  0
 23 24  1  0
 24 25  1  0
 25 26  1  0
 21  3  1  0
 26 22  1  0
 19  6  1  0
 17 10  1  0
  3 27  1  1
  4 28  1  0
  4 29  1  0
  5 30  1  1
  7 31  1  0
  7 32  1  0
  8 33  1  0
  8 34  1  0
 11 35  1  0
 12 36  1  0
 17 37  1  0
 18 38  1  0
 18 39  1  0
 19 40  1  0
 19 41  1  0
 20 42  1  0
 20 43  1  0
 21 44  1  0
 23 45  1  0
 23 46  1  0
 24 47  1  0
 24 48  1  0
 26 49  1  0
 26 50  1  0
M  END
$$$$
