
     RDKit          3D

 56 60  0  0  0  0  0  0  0  0999 V2000
   -7.6187   -0.9984    3.4546 N   0  0  0  0  0  0  0  0  0  0  0  0
   -7.0709   -1.0892    2.4393 C   0  0  0  0  0  0  0  0  0  0  0  0
   -6.3735   -1.2041    1.1469 C   0  0  2  0  0  0  0  0  0  0  0  0
   -6.0696   -2.6669    0.8131 C   0  0  0  0  0  0  0  0  0  0  0  0
   -4.6484   -2.6716    0.2527 C   0  0  0  0  0  0  0  0  0  0  0  0
   -4.6910   -2.6231   -1.1315 F   0  0  0  0  0  0  0  0  0  0  0  0
   -3.9591   -3.8046    0.6517 F   0  0  0  0  0  0  0  0  0  0  0  0
   -3.9866   -1.4101    0.7958 C   0  0  0  0  0  0  0  0  0  0  0  0
   -5.0792   -0.5358    1.1944 N   0  0  0  0  0  0  0  0  0  0  0  0
   -4.9198    0.8722    1.4602 C   0  0  0  0  0  0  0  0  0  0  0  0
   -5.9372    1.6034    1.6009 O   0  0  0  0  0  0  0  0  0  0  0  0
   -3.5587    1.5046    1.5294 C   0  0  0  0  0  0  0  0  0  0  0  0
   -3.0668    1.8166    0.1886 N   0  0  0  0  0  0  0  0  0  0  0  0
   -1.7491    2.3423   -0.0206 C   0  0  0  0  0  0  0  0  0  0  0  0
   -0.9907    2.5524    0.9651 O   0  0  0  0  0  0  0  0  0  0  0  0
   -1.2885    2.6769   -1.3869 C   0  0  0  0  0  0  0  0  0  0  0  0
   -2.1364    3.4414   -2.2030 C   0  0  0  0  0  0  0  0  0  0  0  0
   -1.7199    3.8276   -3.4755 C   0  0  0  0  0  0  0  0  0  0  0  0
   -0.4963    3.4630   -3.9331 N   0  0  0  0  0  0  0  0  0  0  0  0
    0.3547    2.7113   -3.1863 C   0  0  0  0  0  0  0  0  0  0  0  0
    1.5949    2.3478   -3.7163 C   0  0  0  0  0  0  0  0  0  0  0  0
    2.4718    1.5518   -2.9790 C   0  0  0  0  0  0  0  0  0  0  0  0
    2.1190    1.1038   -1.6925 C   0  0  0  0  0  0  0  0  0  0  0  0
    3.0055    0.2275   -0.8863 C   0  0  0  0  0  0  0  0  0  0  0  0
    4.3382    0.1766   -1.0398 C   0  0  0  0  0  0  0  0  0  0  0  0
    5.2277   -0.6963   -0.2344 C   0  0  0  0  0  0  0  0  0  0  0  0
    6.5189   -1.0000   -0.7471 C   0  0  0  0  0  0  0  0  0  0  0  0
    7.4132   -1.8134   -0.0262 C   0  0  0  0  0  0  0  0  0  0  0  0
    6.9908   -2.2991    1.2059 C   0  0  0  0  0  0  0  0  0  0  0  0
    7.6595   -3.0754    2.0720 N   0  0  0  0  0  0  0  0  0  0  0  0
    6.8840   -3.2859    3.1304 N   0  0  0  0  0  0  0  0  0  0  0  0
    5.7092   -2.6375    2.9374 C   0  0  0  0  0  0  0  0  0  0  0  0
    5.7622   -2.0051    1.7144 C   0  0  0  0  0  0  0  0  0  0  0  0
    4.8479   -1.2051    1.0359 C   0  0  0  0  0  0  0  0  0  0  0  0
    0.8652    1.4579   -1.1654 C   0  0  0  0  0  0  0  0  0  0  0  0
   -0.0205    2.2843   -1.8890 C   0  0  0  0  0  0  0  0  0  0  0  0
   -6.9962   -0.7492    0.3462 H   0  0  0  0  0  0  0  0  0  0  0  0
   -6.1007   -3.3058    1.7254 H   0  0  0  0  0  0  0  0  0  0  0  0
   -6.7981   -3.0696    0.0758 H   0  0  0  0  0  0  0  0  0  0  0  0
   -3.3587   -1.6428    1.6830 H   0  0  0  0  0  0  0  0  0  0  0  0
   -3.3627   -0.9320    0.0102 H   0  0  0  0  0  0  0  0  0  0  0  0
   -2.8528    0.8141    2.0379 H   0  0  0  0  0  0  0  0  0  0  0  0
   -3.6114    2.4400    2.1276 H   0  0  0  0  0  0  0  0  0  0  0  0
   -3.6702    1.6242   -0.6439 H   0  0  0  0  0  0  0  0  0  0  0  0
   -3.1082    3.7613   -1.8468 H   0  0  0  0  0  0  0  0  0  0  0  0
   -2.3696    4.4265   -4.0996 H   0  0  0  0  0  0  0  0  0  0  0  0
    1.8769    2.6707   -4.7111 H   0  0  0  0  0  0  0  0  0  0  0  0
    3.4064    1.2628   -3.4392 H   0  0  0  0  0  0  0  0  0  0  0  0
    2.5299   -0.3787   -0.1278 H   0  0  0  0  0  0  0  0  0  0  0  0
    4.8125    0.7878   -1.7956 H   0  0  0  0  0  0  0  0  0  0  0  0
    6.8287   -0.6112   -1.7095 H   0  0  0  0  0  0  0  0  0  0  0  0
    8.3949   -2.0491   -0.4163 H   0  0  0  0  0  0  0  0  0  0  0  0
    8.6247   -3.4568    1.9578 H   0  0  0  0  0  0  0  0  0  0  0  0
    4.8854   -2.6305    3.6386 H   0  0  0  0  0  0  0  0  0  0  0  0
    3.8980   -0.9740    1.4967 H   0  0  0  0  0  0  0  0  0  0  0  0
    0.5894    1.0724   -0.1934 H   0  0  0  0  0  0  0  0  0  0  0  0
  1  2  3  0
  2  3  1  0
  3  4  1  0
  4  5  1  0
  5  6  1  0
  5  7  1  0
  5  8  1  0
  8  9  1  0
  9 10  1  0
 10 11  2  0
 10 12  1  0
 12 13  1  0
 13 14  1  0
 14 15  2  0
 14 16  1  0
 16 17  2  0
 17 18  1  0
 18 19  2  0
 19 20  1  0
 20 21  2  0
 21 22  1  0
 22 23  2  0
 23 24  1  0
 24 25  2  0
 25 26  1  0
 26 27  2  0
 27 28  1  0
 28 29  2  0
 29 30  1  0
 30 31  1  0
 31 32  2  0
 32 33  1  0
 33 34  2  0
 23 35  1  0
 35 36  2  0
  9  3  1  0
 36 16  1  0
 36 20  1  0
 34 26  1  0
 33 29  1  0
  3 37  1  6
  4 38  1  0
  4 39  1  0
  8 40  1  0
  8 41  1  0
 12 42  1  0
 12 43  1  0
 13 44  1  0
 17 45  1  0
 18 46  1  0
 21 47  1  0
 22 48  1  0
 24 49  1  0
 25 50  1  0
 27 51  1  0
 28 52  1  0
 30 53  1  0
 32 54  1  0
 34 55  1  0
 35 56  1  0
M  END
$$$$
