
     RDKit          3D

 63 66  0  0  0  0  0  0  0  0999 V2000
   -0.4512    4.1155   -1.0143 C   0  0  0  0  0  0  0  0  0  0  0  0
   -0.7788    3.0440   -0.0745 C   0  0  0  0  0  0  0  0  0  0  0  0
   -1.0454    2.1576    0.6972 C   0  0  0  0  0  0  0  0  0  0  0  0
   -1.3612    1.0710    1.6289 C   0  0  0  0  0  0  0  0  0  0  0  0
   -1.1139   -0.2238    0.9899 N   0  0  0  0  0  0  0  0  0  0  0  0
   -2.0222   -1.0978    0.4732 C   0  0  0  0  0  0  0  0  0  0  0  0
   -3.4334   -0.8418    0.3864 N   0  0  0  0  0  0  0  0  0  0  0  0
   -4.3668   -1.9262    0.7181 C   0  0  0  0  0  0  0  0  0  0  0  0
   -5.8063   -1.4075    0.7976 C   0  0  0  0  0  0  0  0  0  0  0  0
   -6.2374   -0.6848   -0.4929 C   0  0  0  0  0  0  0  0  0  0  0  0
   -5.0804    0.0525   -1.2112 C   0  0  1  0  0  0  0  0  0  0  0  0
   -5.5819    1.2564   -1.8776 N   0  0  0  0  0  0  0  0  0  0  0  0
   -3.9270    0.3889   -0.2484 C   0  0  0  0  0  0  0  0  0  0  0  0
   -1.4687   -2.2499    0.0138 N   0  0  0  0  0  0  0  0  0  0  0  0
   -0.1552   -2.0584    0.2416 C   0  0  0  0  0  0  0  0  0  0  0  0
    0.0649   -0.8546    0.8187 C   0  0  0  0  0  0  0  0  0  0  0  0
    1.3598   -0.4514    1.1251 C   0  0  0  0  0  0  0  0  0  0  0  0
    1.5690    0.6714    1.6579 O   0  0  0  0  0  0  0  0  0  0  0  0
    2.4024   -1.3009    0.8237 N   0  0  0  0  0  0  0  0  0  0  0  0
    3.7934   -0.8861    1.1238 C   0  0  0  0  0  0  0  0  0  0  0  0
    4.1784    0.3800    0.3694 C   0  0  0  0  0  0  0  0  0  0  0  0
    4.1016    0.3718   -1.0454 C   0  0  0  0  0  0  0  0  0  0  0  0
    3.6299   -0.7812   -1.6955 O   0  0  0  0  0  0  0  0  0  0  0  0
    3.4607   -0.9117   -3.1028 C   0  0  0  0  0  0  0  0  0  0  0  0
    4.5041    1.5055   -1.7740 C   0  0  0  0  0  0  0  0  0  0  0  0
    5.0058    2.6249   -1.1187 C   0  0  0  0  0  0  0  0  0  0  0  0
    5.1091    2.6362    0.2685 C   0  0  0  0  0  0  0  0  0  0  0  0
    4.6929    1.5329    1.0305 C   0  0  0  0  0  0  0  0  0  0  0  0
    4.8254    1.6360    2.5005 C   0  0  0  0  0  0  0  0  0  0  0  0
    5.8906    2.0863    3.0021 O   0  0  0  0  0  0  0  0  0  0  0  0
    3.7622    1.3085    3.3362 O   0  0  0  0  0  0  0  0  0  0  0  0
    2.1418   -2.5435    0.2622 C   0  0  0  0  0  0  0  0  0  0  0  0
    3.0917   -3.3449    0.0340 O   0  0  0  0  0  0  0  0  0  0  0  0
    0.8551   -2.9179   -0.0578 N   0  0  0  0  0  0  0  0  0  0  0  0
    0.5740   -4.2343   -0.6467 C   0  0  0  0  0  0  0  0  0  0  0  0
   -0.5702    5.0975   -0.5120 H   0  0  0  0  0  0  0  0  0  0  0  0
    0.5982    3.9991   -1.3556 H   0  0  0  0  0  0  0  0  0  0  0  0
   -1.1325    4.0616   -1.8882 H   0  0  0  0  0  0  0  0  0  0  0  0
   -2.4171    1.1537    1.9542 H   0  0  0  0  0  0  0  0  0  0  0  0
   -0.7382    1.1722    2.5413 H   0  0  0  0  0  0  0  0  0  0  0  0
   -4.2991   -2.7238   -0.0535 H   0  0  0  0  0  0  0  0  0  0  0  0
   -4.0921   -2.3643    1.7024 H   0  0  0  0  0  0  0  0  0  0  0  0
   -6.4978   -2.2534    1.0016 H   0  0  0  0  0  0  0  0  0  0  0  0
   -5.8799   -0.7000    1.6529 H   0  0  0  0  0  0  0  0  0  0  0  0
   -7.0491    0.0292   -0.2310 H   0  0  0  0  0  0  0  0  0  0  0  0
   -6.6757   -1.4272   -1.1955 H   0  0  0  0  0  0  0  0  0  0  0  0
   -4.6734   -0.6314   -1.9907 H   0  0  0  0  0  0  0  0  0  0  0  0
   -5.8405    1.9685   -1.1558 H   0  0  0  0  0  0  0  0  0  0  0  0
   -4.8106    1.6656   -2.4538 H   0  0  0  0  0  0  0  0  0  0  0  0
   -3.1119    0.8800   -0.8237 H   0  0  0  0  0  0  0  0  0  0  0  0
   -4.2830    1.0927    0.5341 H   0  0  0  0  0  0  0  0  0  0  0  0
    4.5300   -1.6662    0.8388 H   0  0  0  0  0  0  0  0  0  0  0  0
    3.9061   -0.7945    2.2192 H   0  0  0  0  0  0  0  0  0  0  0  0
    2.7399   -0.1522   -3.4725 H   0  0  0  0  0  0  0  0  0  0  0  0
    3.0576   -1.9209   -3.3255 H   0  0  0  0  0  0  0  0  0  0  0  0
    4.4379   -0.7977   -3.6175 H   0  0  0  0  0  0  0  0  0  0  0  0
    4.4459    1.5267   -2.8534 H   0  0  0  0  0  0  0  0  0  0  0  0
    5.3207    3.4887   -1.6901 H   0  0  0  0  0  0  0  0  0  0  0  0
    5.5025    3.5218    0.7535 H   0  0  0  0  0  0  0  0  0  0  0  0
    3.8433    1.3994    4.3418 H   0  0  0  0  0  0  0  0  0  0  0  0
   -0.4109   -4.2495   -1.1602 H   0  0  0  0  0  0  0  0  0  0  0  0
    0.5765   -5.0066    0.1509 H   0  0  0  0  0  0  0  0  0  0  0  0
    1.3407   -4.4918   -1.4086 H   0  0  0  0  0  0  0  0  0  0  0  0
  1  2  1  0
  2  3  3  0
  3  4  1  0
  4  5  1  0
  5  6  1  0
  6  7  1  0
  7  8  1  0
  8  9  1  0
  9 10  1  0
 10 11  1  0
 11 12  1  0
 11 13  1  0
  6 14  2  0
 14 15  1  0
 15 16  2  0
 16 17  1  0
 17 18  2  0
 17 19  1  0
 19 20  1  0
 20 21  1  0
 21 22  2  0
 22 23  1  0
 23 24  1  0
 22 25  1  0
 25 26  2  0
 26 27  1  0
 27 28  2  0
 28 29  1  0
 29 30  2  0
 29 31  1  0
 19 32  1  0
 32 33  2  0
 32 34  1  0
 34 35  1  0
 16  5  1  0
 28 21  1  0
 13  7  1  0
 34 15  1  0
  1 36  1  0
  1 37  1  0
  1 38  1  0
  4 39  1  0
  4 40  1  0
  8 41  1  0
  8 42  1  0
  9 43  1  0
  9 44  1  0
 10 45  1  0
 10 46  1  0
 11 47  1  6
 12 48  1  0
 12 49  1  0
 13 50  1  0
 13 51  1  0
 20 52  1  0
 20 53  1  0
 24 54  1  0
 24 55  1  0
 24 56  1  0
 25 57  1  0
 26 58  1  0
 27 59  1  0
 31 60  1  0
 35 61  1  0
 35 62  1  0
 35 63  1  0
M  END
$$$$
