
     RDKit          3D

 61 61  0  0  0  0  0  0  0  0999 V2000
    1.3817   -5.6392   -0.4384 C   0  0  0  0  0  0  0  0  0  0  0  0
    0.8779   -4.2563   -0.1497 C   0  0  0  0  0  0  0  0  0  0  0  0
    0.8029   -3.3027   -1.1767 C   0  0  0  0  0  0  0  0  0  0  0  0
    0.3000   -2.0249   -0.9162 C   0  0  0  0  0  0  0  0  0  0  0  0
   -0.1475   -1.6922    0.3704 C   0  0  0  0  0  0  0  0  0  0  0  0
   -0.6602   -0.3297    0.6495 C   0  0  0  0  0  0  0  0  0  0  0  0
    0.2576    0.7335    0.8049 C   0  0  0  0  0  0  0  0  0  0  0  0
    1.7130    0.4722    0.6947 C   0  0  0  0  0  0  0  0  0  0  0  0
    2.4702    1.0923   -0.2159 C   0  0  0  0  0  0  0  0  0  0  0  0
    3.9008    0.7962   -0.3922 C   0  0  0  0  0  0  0  0  0  0  0  0
    4.6626    1.4155   -1.3196 N   0  0  0  0  0  0  0  0  0  0  0  0
    5.9514    0.9780   -1.3021 C   0  0  0  0  0  0  0  0  0  0  0  0
    6.9571    1.5162   -2.2279 C   0  0  0  0  0  0  0  0  0  0  0  0
    8.1452    1.0965   -2.1945 O   0  0  0  0  0  0  0  0  0  0  0  0
    6.5956    2.4957   -3.1476 O   0  0  0  0  0  0  0  0  0  0  0  0
    6.2289   -0.0034   -0.3518 C   0  0  0  0  0  0  0  0  0  0  0  0
    4.8066   -0.3227    0.4848 S   0  0  0  0  0  0  0  0  0  0  0  0
   -0.2347    2.0160    1.1191 C   0  0  0  0  0  0  0  0  0  0  0  0
    0.6700    3.1891    1.3675 C   0  0  0  0  0  0  0  0  0  0  0  0
   -1.5721    2.2141    1.2106 N   0  0  0  0  0  0  0  0  0  0  0  0
   -2.4936    1.2339    1.0251 C   0  0  0  0  0  0  0  0  0  0  0  0
   -3.9505    1.6335    1.1562 C   0  0  0  0  0  0  0  0  0  0  0  0
   -4.5213    2.3507   -0.0927 C   0  0  0  0  0  0  0  0  0  0  0  0
   -4.5589    1.4421   -1.3274 C   0  0  0  0  0  0  0  0  0  0  0  0
   -3.7827    3.6598   -0.4075 C   0  0  0  0  0  0  0  0  0  0  0  0
   -2.0567   -0.0859    0.7344 C   0  0  0  0  0  0  0  0  0  0  0  0
   -3.0380   -1.2364    0.5814 C   0  0  0  0  0  0  0  0  0  0  0  0
   -3.2413   -1.8963    1.8670 N   0  0  0  0  0  0  0  0  0  0  0  0
   -0.0846   -2.6470    1.3948 C   0  0  0  0  0  0  0  0  0  0  0  0
    0.4168   -3.9254    1.1340 C   0  0  0  0  0  0  0  0  0  0  0  0
    0.6878    0.0000    0.0000 Cl  0  0  0  0  0  0  0  0  0  0  0  0
    0.6878    0.0000    0.0000 Cl  0  0  0  0  0  0  0  0  0  0  0  0
    2.1423   -5.6180   -1.2478 H   0  0  0  0  0  0  0  0  0  0  0  0
    1.8543   -6.0805    0.4649 H   0  0  0  0  0  0  0  0  0  0  0  0
    0.5340   -6.2822   -0.7546 H   0  0  0  0  0  0  0  0  0  0  0  0
    1.1357   -3.5474   -2.1779 H   0  0  0  0  0  0  0  0  0  0  0  0
    0.2570   -1.2948   -1.7151 H   0  0  0  0  0  0  0  0  0  0  0  0
    2.1326   -0.3169    1.3059 H   0  0  0  0  0  0  0  0  0  0  0  0
    2.0218    1.8251   -0.8753 H   0  0  0  0  0  0  0  0  0  0  0  0
    7.2757    2.8784   -3.7936 H   0  0  0  0  0  0  0  0  0  0  0  0
    7.1857   -0.4783   -0.1793 H   0  0  0  0  0  0  0  0  0  0  0  0
    1.5419    2.8896    1.9863 H   0  0  0  0  0  0  0  0  0  0  0  0
    1.0200    3.6066    0.4012 H   0  0  0  0  0  0  0  0  0  0  0  0
    0.1235    3.9868    1.9142 H   0  0  0  0  0  0  0  0  0  0  0  0
   -4.5986    0.7771    1.4261 H   0  0  0  0  0  0  0  0  0  0  0  0
   -4.0366    2.3262    2.0220 H   0  0  0  0  0  0  0  0  0  0  0  0
   -5.5738    2.6228    0.1448 H   0  0  0  0  0  0  0  0  0  0  0  0
   -3.5404    1.0864   -1.5915 H   0  0  0  0  0  0  0  0  0  0  0  0
   -5.2191    0.5701   -1.1398 H   0  0  0  0  0  0  0  0  0  0  0  0
   -4.9753    1.9954   -2.1961 H   0  0  0  0  0  0  0  0  0  0  0  0
   -3.7054    4.2899    0.5040 H   0  0  0  0  0  0  0  0  0  0  0  0
   -2.7635    3.4587   -0.8000 H   0  0  0  0  0  0  0  0  0  0  0  0
   -4.3425    4.2340   -1.1762 H   0  0  0  0  0  0  0  0  0  0  0  0
   -2.6564   -1.9767   -0.1535 H   0  0  0  0  0  0  0  0  0  0  0  0
   -4.0087   -0.9095    0.1644 H   0  0  0  0  0  0  0  0  0  0  0  0
   -3.7601   -1.2424    2.4967 H   0  0  0  0  0  0  0  0  0  0  0  0
   -3.8677   -2.7185    1.7090 H   0  0  0  0  0  0  0  0  0  0  0  0
   -0.4219   -2.3998    2.3938 H   0  0  0  0  0  0  0  0  0  0  0  0
    0.4493   -4.6554    1.9334 H   0  0  0  0  0  0  0  0  0  0  0  0
   -0.6878    0.0000    0.0000 H   0  0  0  0  0  0  0  0  0  0  0  0
   -0.6878    0.0000    0.0000 H   0  0  0  0  0  0  0  0  0  0  0  0
  1  2  1  0
  2  3  2  0
  3  4  1  0
  4  5  2  0
  5  6  1  0
  6  7  1  0
  7  8  1  0
  8  9  2  0
  9 10  1  0
 10 11  2  0
 11 12  1  0
 12 13  1  0
 13 14  2  0
 13 15  1  0
 12 16  2  0
 16 17  1  0
  7 18  2  0
 18 19  1  0
 18 20  1  0
 20 21  2  0
 21 22  1  0
 22 23  1  0
 23 24  1  0
 23 25  1  0
 21 26  1  0
 26 27  1  0
 27 28  1  0
  5 29  1  0
 29 30  2  0
 30  2  1  0
 26  6  2  0
 17 10  1  0
  1 33  1  0
  1 34  1  0
  1 35  1  0
  3 36  1  0
  4 37  1  0
  8 38  1  0
  9 39  1  0
 15 40  1  0
 16 41  1  0
 19 42  1  0
 19 43  1  0
 19 44  1  0
 22 45  1  0
 22 46  1  0
 23 47  1  0
 24 48  1  0
 24 49  1  0
 24 50  1  0
 25 51  1  0
 25 52  1  0
 25 53  1  0
 27 54  1  0
 27 55  1  0
 28 56  1  0
 28 57  1  0
 29 58  1  0
 30 59  1  0
 31 60  1  0
 32 61  1  0
M  END
$$$$
