
     RDKit          3D

 46 48  0  0  0  0  0  0  0  0999 V2000
    0.8029   -2.8457    2.2063 C   0  0  0  0  0  0  0  0  0  0  0  0
    1.2589   -1.5175    1.5853 C   0  0  2  0  0  0  0  0  0  0  0  0
    0.0465   -0.6982    1.2317 C   0  0  0  0  0  0  0  0  0  0  0  0
   -0.8943   -1.0775    0.3446 N   0  0  0  0  0  0  0  0  0  0  0  0
   -1.7325   -0.0191    0.3751 C   0  0  0  0  0  0  0  0  0  0  0  0
   -2.9621    0.0799   -0.4398 C   0  0  0  0  0  0  0  0  0  0  0  0
   -3.7854    1.2150   -0.3538 C   0  0  0  0  0  0  0  0  0  0  0  0
   -4.9478    1.3088   -1.1253 C   0  0  0  0  0  0  0  0  0  0  0  0
   -5.3074    0.2649   -1.9989 C   0  0  0  0  0  0  0  0  0  0  0  0
   -6.4624    0.3055   -2.7967 O   0  0  0  0  0  0  0  0  0  0  0  0
   -7.4025    1.3772   -2.8315 C   0  0  0  0  0  0  0  0  0  0  0  0
   -8.4048    1.0651   -3.7294 F   0  0  0  0  0  0  0  0  0  0  0  0
   -7.9651    1.5589   -1.5808 F   0  0  0  0  0  0  0  0  0  0  0  0
   -6.7818    2.5428   -3.2437 F   0  0  0  0  0  0  0  0  0  0  0  0
   -4.4860   -0.8646   -2.0829 C   0  0  0  0  0  0  0  0  0  0  0  0
   -3.3238   -0.9597   -1.3124 C   0  0  0  0  0  0  0  0  0  0  0  0
   -1.3183    0.9383    1.2300 N   0  0  0  0  0  0  0  0  0  0  0  0
   -0.2158    0.4805    1.7386 O   0  0  0  0  0  0  0  0  0  0  0  0
    2.1658   -1.7286    0.3398 C   0  0  2  0  0  0  0  0  0  0  0  0
    3.3731   -2.4884    0.6774 N   0  0  0  0  0  0  0  0  0  0  0  0
    2.5351   -0.3990   -0.2947 C   0  0  0  0  0  0  0  0  0  0  0  0
    1.9558   -0.0728   -1.3667 O   0  0  0  0  0  0  0  0  0  0  0  0
    3.4590    0.5281    0.3126 N   0  0  0  0  0  0  0  0  0  0  0  0
    3.5565    1.9131   -0.1186 C   0  0  0  0  0  0  0  0  0  0  0  0
    4.7712    2.4885    0.5967 C   0  0  0  0  0  0  0  0  0  0  0  0
    5.0873    1.5164    1.7281 C   0  0  0  0  0  0  0  0  0  0  0  0
    4.4419    0.1958    1.3328 C   0  0  0  0  0  0  0  0  0  0  0  0
    1.6641   -3.3818    2.6565 H   0  0  0  0  0  0  0  0  0  0  0  0
    0.3268   -3.4962    1.4413 H   0  0  0  0  0  0  0  0  0  0  0  0
    0.0699   -2.6576    3.0206 H   0  0  0  0  0  0  0  0  0  0  0  0
    1.8239   -0.9653    2.3645 H   0  0  0  0  0  0  0  0  0  0  0  0
   -3.5316    2.0320    0.3100 H   0  0  0  0  0  0  0  0  0  0  0  0
   -5.5562    2.1970   -1.0326 H   0  0  0  0  0  0  0  0  0  0  0  0
   -4.7505   -1.6748   -2.7507 H   0  0  0  0  0  0  0  0  0  0  0  0
   -2.7091   -1.8469   -1.4005 H   0  0  0  0  0  0  0  0  0  0  0  0
    1.5879   -2.3158   -0.4127 H   0  0  0  0  0  0  0  0  0  0  0  0
    3.9926   -2.5177   -0.1656 H   0  0  0  0  0  0  0  0  0  0  0  0
    3.1056   -3.4841    0.8492 H   0  0  0  0  0  0  0  0  0  0  0  0
    2.6340    2.4588    0.1762 H   0  0  0  0  0  0  0  0  0  0  0  0
    3.6938    1.9712   -1.2205 H   0  0  0  0  0  0  0  0  0  0  0  0
    4.5664    3.5094    0.9861 H   0  0  0  0  0  0  0  0  0  0  0  0
    5.6327    2.5316   -0.1057 H   0  0  0  0  0  0  0  0  0  0  0  0
    6.1839    1.4054    1.8729 H   0  0  0  0  0  0  0  0  0  0  0  0
    4.6300    1.8873    2.6720 H   0  0  0  0  0  0  0  0  0  0  0  0
    5.2061   -0.4882    0.9050 H   0  0  0  0  0  0  0  0  0  0  0  0
    3.9657   -0.2718    2.2176 H   0  0  0  0  0  0  0  0  0  0  0  0
  1  2  1  0
  2  3  1  0
  3  4  2  0
  4  5  1  0
  5  6  1  0
  6  7  2  0
  7  8  1  0
  8  9  2  0
  9 10  1  0
 10 11  1  0
 11 12  1  0
 11 13  1  0
 11 14  1  0
  9 15  1  0
 15 16  2  0
  5 17  2  0
 17 18  1  0
  2 19  1  0
 19 20  1  0
 19 21  1  0
 21 22  2  0
 21 23  1  0
 23 24  1  0
 24 25  1  0
 25 26  1  0
 26 27  1  0
 18  3  1  0
 27 23  1  0
 16  6  1  0
  1 28  1  0
  1 29  1  0
  1 30  1  0
  2 31  1  1
  7 32  1  0
  8 33  1  0
 15 34  1  0
 16 35  1  0
 19 36  1  6
 20 37  1  0
 20 38  1  0
 24 39  1  0
 24 40  1  0
 25 41  1  0
 25 42  1  0
 26 43  1  0
 26 44  1  0
 27 45  1  0
 27 46  1  0
M  END
$$$$
