
     RDKit          3D

 56 58  0  0  0  0  0  0  0  0999 V2000
   -0.9945    4.1436    0.6091 C   0  0  0  0  0  0  0  0  0  0  0  0
   -1.0445    2.7183    0.0431 C   0  0  2  0  0  0  0  0  0  0  0  0
   -2.1383    2.6060   -1.0313 C   0  0  0  0  0  0  0  0  0  0  0  0
   -1.8466    1.5083   -2.0657 C   0  0  0  0  0  0  0  0  0  0  0  0
   -1.1399    0.3457   -1.4988 N   0  0  0  0  0  0  0  0  0  0  0  0
   -0.0863   -0.2540   -2.2734 C   0  0  0  0  0  0  0  0  0  0  0  0
   -0.2029   -1.4459   -2.6678 O   0  0  0  0  0  0  0  0  0  0  0  0
    1.1704    0.5122   -2.5917 C   0  0  0  0  0  0  0  0  0  0  0  0
    2.4050   -0.0223   -1.8313 C   0  0  2  0  0  0  0  0  0  0  0  0
    2.6855   -1.4092   -2.2172 N   0  0  0  0  0  0  0  0  0  0  0  0
    2.2108    0.0879   -0.3021 C   0  0  0  0  0  0  0  0  0  0  0  0
    3.4949   -0.1584    0.4505 C   0  0  0  0  0  0  0  0  0  0  0  0
    3.7467   -1.4169    1.0236 C   0  0  0  0  0  0  0  0  0  0  0  0
    4.9436   -1.6557    1.7060 C   0  0  0  0  0  0  0  0  0  0  0  0
    5.1763   -2.8733    2.2558 F   0  0  0  0  0  0  0  0  0  0  0  0
    5.8996   -0.6418    1.8188 C   0  0  0  0  0  0  0  0  0  0  0  0
    7.0609   -0.8724    2.4798 F   0  0  0  0  0  0  0  0  0  0  0  0
    5.6598    0.6111    1.2477 C   0  0  0  0  0  0  0  0  0  0  0  0
    4.4645    0.8555    0.5636 C   0  0  0  0  0  0  0  0  0  0  0  0
    4.2529    2.0781    0.0134 F   0  0  0  0  0  0  0  0  0  0  0  0
   -1.6380   -0.3782   -0.3142 C   0  0  2  0  0  0  0  0  0  0  0  0
   -3.1512   -0.6681   -0.4120 C   0  0  0  0  0  0  0  0  0  0  0  0
   -3.5962   -1.6636    0.6236 C   0  0  0  0  0  0  0  0  0  0  0  0
   -3.4028   -3.0388    0.4249 C   0  0  0  0  0  0  0  0  0  0  0  0
   -3.7962   -3.9361    1.4197 C   0  0  0  0  0  0  0  0  0  0  0  0
   -4.3703   -3.4582    2.5990 C   0  0  0  0  0  0  0  0  0  0  0  0
   -4.5409   -2.0823    2.7667 C   0  0  0  0  0  0  0  0  0  0  0  0
   -4.1513   -1.2232    1.7871 N   0  0  0  0  0  0  0  0  0  0  0  0
   -1.2749    0.3310    0.9737 C   0  0  0  0  0  0  0  0  0  0  0  0
   -1.0232   -0.3747    1.9878 O   0  0  0  0  0  0  0  0  0  0  0  0
   -1.2930    1.7594    1.1258 N   0  0  0  0  0  0  0  0  0  0  0  0
   -0.7496    4.8701   -0.1951 H   0  0  0  0  0  0  0  0  0  0  0  0
   -1.9725    4.4175    1.0603 H   0  0  0  0  0  0  0  0  0  0  0  0
   -0.2060    4.2149    1.3884 H   0  0  0  0  0  0  0  0  0  0  0  0
   -0.0489    2.5159   -0.4041 H   0  0  0  0  0  0  0  0  0  0  0  0
   -3.1217    2.4325   -0.5459 H   0  0  0  0  0  0  0  0  0  0  0  0
   -2.2352    3.5657   -1.5860 H   0  0  0  0  0  0  0  0  0  0  0  0
   -1.2444    1.9585   -2.8853 H   0  0  0  0  0  0  0  0  0  0  0  0
   -2.7995    1.1744   -2.5287 H   0  0  0  0  0  0  0  0  0  0  0  0
    1.0365    1.5868   -2.3475 H   0  0  0  0  0  0  0  0  0  0  0  0
    1.3552    0.4556   -3.6861 H   0  0  0  0  0  0  0  0  0  0  0  0
    3.2698    0.6152   -2.1271 H   0  0  0  0  0  0  0  0  0  0  0  0
    3.6159   -1.6825   -1.8265 H   0  0  0  0  0  0  0  0  0  0  0  0
    2.7991   -1.4481   -3.2564 H   0  0  0  0  0  0  0  0  0  0  0  0
    1.4320   -0.6320    0.0310 H   0  0  0  0  0  0  0  0  0  0  0  0
    1.8400    1.1021   -0.0425 H   0  0  0  0  0  0  0  0  0  0  0  0
    3.0176   -2.2133    0.9381 H   0  0  0  0  0  0  0  0  0  0  0  0
    6.4021    1.3942    1.3340 H   0  0  0  0  0  0  0  0  0  0  0  0
   -1.1303   -1.3701   -0.2735 H   0  0  0  0  0  0  0  0  0  0  0  0
   -3.7395    0.2636   -0.2895 H   0  0  0  0  0  0  0  0  0  0  0  0
   -3.3822   -1.0729   -1.4218 H   0  0  0  0  0  0  0  0  0  0  0  0
   -2.9501   -3.4084   -0.4869 H   0  0  0  0  0  0  0  0  0  0  0  0
   -3.6538   -4.9996    1.2780 H   0  0  0  0  0  0  0  0  0  0  0  0
   -4.6772   -4.1462    3.3760 H   0  0  0  0  0  0  0  0  0  0  0  0
   -4.9805   -1.6967    3.6768 H   0  0  0  0  0  0  0  0  0  0  0  0
   -1.3570    2.1188    2.1061 H   0  0  0  0  0  0  0  0  0  0  0  0
  1  2  1  0
  2  3  1  0
  3  4  1  0
  4  5  1  0
  5  6  1  0
  6  7  2  0
  6  8  1  0
  8  9  1  0
  9 10  1  0
  9 11  1  0
 11 12  1  0
 12 13  2  0
 13 14  1  0
 14 15  1  0
 14 16  2  0
 16 17  1  0
 16 18  1  0
 18 19  2  0
 19 20  1  0
  5 21  1  0
 21 22  1  0
 22 23  1  0
 23 24  2  0
 24 25  1  0
 25 26  2  0
 26 27  1  0
 27 28  2  0
 21 29  1  0
 29 30  2  0
 29 31  1  0
 31  2  1  0
 19 12  1  0
 28 23  1  0
  1 32  1  0
  1 33  1  0
  1 34  1  0
  2 35  1  6
  3 36  1  0
  3 37  1  0
  4 38  1  0
  4 39  1  0
  8 40  1  0
  8 41  1  0
  9 42  1  6
 10 43  1  0
 10 44  1  0
 11 45  1  0
 11 46  1  0
 13 47  1  0
 18 48  1  0
 21 49  1  1
 22 50  1  0
 22 51  1  0
 24 52  1  0
 25 53  1  0
 26 54  1  0
 27 55  1  0
 31 56  1  0
M  END
$$$$
