
     RDKit          3D

 50 52  0  0  0  0  0  0  0  0999 V2000
   -2.4288   -0.1010    2.4319 C   0  0  0  0  0  0  0  0  0  0  0  0
   -1.5554   -0.0649    1.1727 C   0  0  0  0  0  0  0  0  0  0  0  0
   -2.4402   -0.1720   -0.0334 C   0  0  0  0  0  0  0  0  0  0  0  0
   -3.0961   -1.2752   -0.4443 N   0  0  0  0  0  0  0  0  0  0  0  0
   -3.8200   -0.8386   -1.5044 C   0  0  0  0  0  0  0  0  0  0  0  0
   -4.7208   -1.7410   -2.2955 C   0  0  0  0  0  0  0  0  0  0  0  0
   -4.4267   -1.6347   -3.6422 F   0  0  0  0  0  0  0  0  0  0  0  0
   -6.0388   -1.3834   -2.0819 F   0  0  0  0  0  0  0  0  0  0  0  0
   -4.5433   -3.0555   -1.9027 F   0  0  0  0  0  0  0  0  0  0  0  0
   -3.6652    0.4899   -1.7372 N   0  0  0  0  0  0  0  0  0  0  0  0
   -4.2530    1.2967   -2.8055 C   0  0  0  0  0  0  0  0  0  0  0  0
   -2.7685    0.8883   -0.8185 C   0  0  0  0  0  0  0  0  0  0  0  0
   -2.2410    2.2593   -0.5775 C   0  0  0  0  0  0  0  0  0  0  0  0
   -0.8300    2.1521    0.0212 C   0  0  0  0  0  0  0  0  0  0  0  0
   -0.7499    1.1858    1.1455 N   0  0  0  0  0  0  0  0  0  0  0  0
    0.2625    1.4222    2.1512 C   0  0  0  0  0  0  0  0  0  0  0  0
    0.5034    2.6038    2.5211 O   0  0  0  0  0  0  0  0  0  0  0  0
    1.0998    0.3095    2.7394 C   0  0  0  0  0  0  0  0  0  0  0  0
    2.3676    0.0048    1.9143 C   0  0  2  0  0  0  0  0  0  0  0  0
    3.1759    1.2197    1.7575 N   0  0  0  0  0  0  0  0  0  0  0  0
    2.0321   -0.6487    0.5530 C   0  0  0  0  0  0  0  0  0  0  0  0
    3.2749   -1.0905   -0.1802 C   0  0  0  0  0  0  0  0  0  0  0  0
    3.9166   -2.2842    0.1919 C   0  0  0  0  0  0  0  0  0  0  0  0
    5.0821   -2.6945   -0.4625 C   0  0  0  0  0  0  0  0  0  0  0  0
    5.6916   -3.8493   -0.0966 F   0  0  0  0  0  0  0  0  0  0  0  0
    5.6193   -1.9140   -1.4903 C   0  0  0  0  0  0  0  0  0  0  0  0
    6.7503   -2.3100   -2.1251 F   0  0  0  0  0  0  0  0  0  0  0  0
    4.9923   -0.7219   -1.8628 C   0  0  0  0  0  0  0  0  0  0  0  0
    3.8260   -0.3062   -1.2119 C   0  0  0  0  0  0  0  0  0  0  0  0
    3.2400    0.8593   -1.5866 F   0  0  0  0  0  0  0  0  0  0  0  0
   -1.8015   -0.0703    3.3463 H   0  0  0  0  0  0  0  0  0  0  0  0
   -3.1186    0.7704    2.4475 H   0  0  0  0  0  0  0  0  0  0  0  0
   -3.0277   -1.0366    2.4594 H   0  0  0  0  0  0  0  0  0  0  0  0
   -0.8870   -0.9487    1.1627 H   0  0  0  0  0  0  0  0  0  0  0  0
   -4.4041    2.3410   -2.4603 H   0  0  0  0  0  0  0  0  0  0  0  0
   -3.5775    1.2953   -3.6862 H   0  0  0  0  0  0  0  0  0  0  0  0
   -5.2429    0.8933   -3.1017 H   0  0  0  0  0  0  0  0  0  0  0  0
   -2.9125    2.7857    0.1339 H   0  0  0  0  0  0  0  0  0  0  0  0
   -2.1954    2.8319   -1.5279 H   0  0  0  0  0  0  0  0  0  0  0  0
   -0.5256    3.1693    0.3488 H   0  0  0  0  0  0  0  0  0  0  0  0
   -0.1210    1.8343   -0.7736 H   0  0  0  0  0  0  0  0  0  0  0  0
    0.5092   -0.6174    2.8783 H   0  0  0  0  0  0  0  0  0  0  0  0
    1.4161    0.6145    3.7611 H   0  0  0  0  0  0  0  0  0  0  0  0
    2.9576   -0.7306    2.5073 H   0  0  0  0  0  0  0  0  0  0  0  0
    2.7730    1.8169    0.9989 H   0  0  0  0  0  0  0  0  0  0  0  0
    4.1419    0.9494    1.4621 H   0  0  0  0  0  0  0  0  0  0  0  0
    1.3922   -1.5413    0.7241 H   0  0  0  0  0  0  0  0  0  0  0  0
    1.4419    0.0493   -0.0758 H   0  0  0  0  0  0  0  0  0  0  0  0
    3.5131   -2.8949    0.9904 H   0  0  0  0  0  0  0  0  0  0  0  0
    5.4121   -0.1170   -2.6564 H   0  0  0  0  0  0  0  0  0  0  0  0
  1  2  1  0
  2  3  1  0
  3  4  1  0
  4  5  2  0
  5  6  1  0
  6  7  1  0
  6  8  1  0
  6  9  1  0
  5 10  1  0
 10 11  1  0
 10 12  1  0
 12 13  1  0
 13 14  1  0
 14 15  1  0
 15 16  1  0
 16 17  2  0
 16 18  1  0
 18 19  1  0
 19 20  1  0
 19 21  1  0
 21 22  1  0
 22 23  2  0
 23 24  1  0
 24 25  1  0
 24 26  2  0
 26 27  1  0
 26 28  1  0
 28 29  2  0
 29 30  1  0
 15  2  1  0
 29 22  1  0
 12  3  2  0
  1 31  1  0
  1 32  1  0
  1 33  1  0
  2 34  1  0
 11 35  1  0
 11 36  1  0
 11 37  1  0
 13 38  1  0
 13 39  1  0
 14 40  1  0
 14 41  1  0
 18 42  1  0
 18 43  1  0
 19 44  1  1
 20 45  1  0
 20 46  1  0
 21 47  1  0
 21 48  1  0
 23 49  1  0
 28 50  1  0
M  END
$$$$
