
     RDKit          3D

 60 64  0  0  0  0  0  0  0  0999 V2000
   -4.0958   -3.5962    2.4169 C   0  0  0  0  0  0  0  0  0  0  0  0
   -3.9215   -2.4045    1.5369 C   0  0  0  0  0  0  0  0  0  0  0  0
   -3.0529   -2.3141    0.4655 C   0  0  0  0  0  0  0  0  0  0  0  0
   -3.1850   -1.0067    0.0443 C   0  0  0  0  0  0  0  0  0  0  0  0
   -2.3499   -0.3737   -0.9405 N   0  0  0  0  0  0  0  0  0  0  0  0
   -1.5770    0.8235   -0.5880 C   0  0  0  0  0  0  0  0  0  0  0  0
   -0.2400    0.8405   -1.3380 C   0  0  0  0  0  0  0  0  0  0  0  0
    0.3070   -0.5335   -1.3922 N   0  0  0  0  0  0  0  0  0  0  0  0
    1.7247   -0.5368   -1.8409 C   0  0  2  0  0  0  0  0  0  0  0  0
    2.3163   -1.9450   -1.8980 C   0  0  0  0  0  0  0  0  0  0  0  0
    3.7563   -1.8407   -1.6660 N   0  0  0  0  0  0  0  0  0  0  0  0
    3.9996   -0.5332   -1.0433 C   0  0  2  0  0  0  0  0  0  0  0  0
    4.7177   -0.7019    0.2764 C   0  0  0  0  0  0  0  0  0  0  0  0
    4.6185   -1.8005    0.8899 O   0  0  0  0  0  0  0  0  0  0  0  0
    5.4477    0.3838    0.8837 N   0  0  0  0  0  0  0  0  0  0  0  0
    5.9877    0.2665    2.2309 C   0  0  0  0  0  0  0  0  0  0  0  0
    6.3836    1.6555    2.7006 C   0  0  0  0  0  0  0  0  0  0  0  0
    6.8165    2.6412    1.2418 S   0  0  0  0  0  0  0  0  0  0  0  0
    5.7086    1.6459    0.2030 C   0  0  0  0  0  0  0  0  0  0  0  0
    2.6497    0.1553   -0.8534 C   0  0  0  0  0  0  0  0  0  0  0  0
   -0.5342   -1.3950   -2.2689 C   0  0  0  0  0  0  0  0  0  0  0  0
   -2.0388   -1.0629   -2.1940 C   0  0  0  0  0  0  0  0  0  0  0  0
   -4.0752   -0.3697    0.8379 N   0  0  0  0  0  0  0  0  0  0  0  0
   -4.5525    0.9798    0.7210 C   0  0  0  0  0  0  0  0  0  0  0  0
   -4.8499    1.5297   -0.5382 C   0  0  0  0  0  0  0  0  0  0  0  0
   -5.3351    2.8370   -0.6396 C   0  0  0  0  0  0  0  0  0  0  0  0
   -5.5410    3.5989    0.5136 C   0  0  0  0  0  0  0  0  0  0  0  0
   -5.2680    3.0521    1.7704 C   0  0  0  0  0  0  0  0  0  0  0  0
   -4.7823    1.7450    1.8755 C   0  0  0  0  0  0  0  0  0  0  0  0
   -4.5199   -1.2159    1.7547 N   0  0  0  0  0  0  0  0  0  0  0  0
   -5.0973   -3.5705    2.8954 H   0  0  0  0  0  0  0  0  0  0  0  0
   -4.0078   -4.5275    1.8188 H   0  0  0  0  0  0  0  0  0  0  0  0
   -3.3143   -3.5914    3.2049 H   0  0  0  0  0  0  0  0  0  0  0  0
   -2.3777   -3.0716    0.0895 H   0  0  0  0  0  0  0  0  0  0  0  0
   -2.1526    1.7388   -0.8357 H   0  0  0  0  0  0  0  0  0  0  0  0
   -1.3667    0.8229    0.5048 H   0  0  0  0  0  0  0  0  0  0  0  0
    0.4361    1.5319   -0.7934 H   0  0  0  0  0  0  0  0  0  0  0  0
   -0.3817    1.2453   -2.3662 H   0  0  0  0  0  0  0  0  0  0  0  0
    1.8250   -0.0544   -2.8417 H   0  0  0  0  0  0  0  0  0  0  0  0
    2.1054   -2.4259   -2.8795 H   0  0  0  0  0  0  0  0  0  0  0  0
    1.8814   -2.5776   -1.0931 H   0  0  0  0  0  0  0  0  0  0  0  0
    4.2414   -1.8666   -2.5946 H   0  0  0  0  0  0  0  0  0  0  0  0
    4.6221    0.0838   -1.7296 H   0  0  0  0  0  0  0  0  0  0  0  0
    6.8763   -0.4009    2.2127 H   0  0  0  0  0  0  0  0  0  0  0  0
    5.2248   -0.1552    2.9213 H   0  0  0  0  0  0  0  0  0  0  0  0
    5.5234    2.1406    3.2099 H   0  0  0  0  0  0  0  0  0  0  0  0
    7.2431    1.6064    3.4019 H   0  0  0  0  0  0  0  0  0  0  0  0
    4.7580    2.1958    0.0442 H   0  0  0  0  0  0  0  0  0  0  0  0
    6.2142    1.4632   -0.7678 H   0  0  0  0  0  0  0  0  0  0  0  0
    2.7302    1.2428   -1.0692 H   0  0  0  0  0  0  0  0  0  0  0  0
    2.2686    0.0106    0.1838 H   0  0  0  0  0  0  0  0  0  0  0  0
   -0.4061   -2.4524   -1.9524 H   0  0  0  0  0  0  0  0  0  0  0  0
   -0.2138   -1.3190   -3.3331 H   0  0  0  0  0  0  0  0  0  0  0  0
   -2.3065   -0.3913   -3.0387 H   0  0  0  0  0  0  0  0  0  0  0  0
   -2.6458   -1.9878   -2.3099 H   0  0  0  0  0  0  0  0  0  0  0  0
   -4.7131    0.9446   -1.4386 H   0  0  0  0  0  0  0  0  0  0  0  0
   -5.5565    3.2575   -1.6120 H   0  0  0  0  0  0  0  0  0  0  0  0
   -5.9176    4.6105    0.4338 H   0  0  0  0  0  0  0  0  0  0  0  0
   -5.4338    3.6407    2.6635 H   0  0  0  0  0  0  0  0  0  0  0  0
   -4.5735    1.3321    2.8544 H   0  0  0  0  0  0  0  0  0  0  0  0
  1  2  1  0
  2  3  1  0
  3  4  2  0
  4  5  1  0
  5  6  1  0
  6  7  1  0
  7  8  1  0
  8  9  1  0
  9 10  1  0
 10 11  1  0
 11 12  1  0
 12 13  1  0
 13 14  2  0
 13 15  1  0
 15 16  1  0
 16 17  1  0
 17 18  1  0
 18 19  1  0
 12 20  1  0
  8 21  1  0
 21 22  1  0
  4 23  1  0
 23 24  1  0
 24 25  2  0
 25 26  1  0
 26 27  2  0
 27 28  1  0
 28 29  2  0
 23 30  1  0
 30  2  2  0
 22  5  1  0
 29 24  1  0
 20  9  1  0
 19 15  1  0
  1 31  1  0
  1 32  1  0
  1 33  1  0
  3 34  1  0
  6 35  1  0
  6 36  1  0
  7 37  1  0
  7 38  1  0
  9 39  1  6
 10 40  1  0
 10 41  1  0
 11 42  1  0
 12 43  1  6
 16 44  1  0
 16 45  1  0
 17 46  1  0
 17 47  1  0
 19 48  1  0
 19 49  1  0
 20 50  1  0
 20 51  1  0
 21 52  1  0
 21 53  1  0
 22 54  1  0
 22 55  1  0
 25 56  1  0
 26 57  1  0
 27 58  1  0
 28 59  1  0
 29 60  1  0
M  END
$$$$
