
     RDKit          3D

 34 35  0  0  0  0  0  0  0  0999 V2000
   -2.3825   -2.6264    0.3947 N   0  0  0  0  0  0  0  0  0  0  0  0
   -1.9179   -1.5673    0.4339 C   0  0  0  0  0  0  0  0  0  0  0  0
   -1.3263   -0.2205    0.4826 C   0  0  2  0  0  0  0  0  0  0  0  0
   -1.6742    0.4826    1.7939 C   0  0  0  0  0  0  0  0  0  0  0  0
   -2.8463    1.4036    1.4674 C   0  0  0  0  0  0  0  0  0  0  0  0
   -2.7649    1.6576   -0.0325 C   0  0  0  0  0  0  0  0  0  0  0  0
   -1.9020    0.6150   -0.5643 N   0  0  0  0  0  0  0  0  0  0  0  0
   -1.5825    0.5214   -1.9671 C   0  0  0  0  0  0  0  0  0  0  0  0
   -2.1705    1.2716   -2.7924 O   0  0  0  0  0  0  0  0  0  0  0  0
   -0.5275   -0.4230   -2.4706 C   0  0  0  0  0  0  0  0  0  0  0  0
    0.7977    0.0192   -2.0417 N   0  0  0  0  0  0  0  0  0  0  0  0
    1.9125   -0.8794   -1.9939 C   0  0  0  0  0  0  0  0  0  0  0  0
    1.8376   -2.0168   -2.5331 O   0  0  0  0  0  0  0  0  0  0  0  0
    3.1579   -0.4862   -1.2614 C   0  0  0  0  0  0  0  0  0  0  0  0
    2.8664   -0.3619    0.2012 C   0  0  0  0  0  0  0  0  0  0  0  0
    2.7299   -1.4054    1.0895 C   0  0  0  0  0  0  0  0  0  0  0  0
    2.3746   -0.8910    2.2760 N   0  0  0  0  0  0  0  0  0  0  0  0
    2.2945    0.4393    2.0837 C   0  0  0  0  0  0  0  0  0  0  0  0
    2.5813    0.8039    0.8160 N   0  0  0  0  0  0  0  0  0  0  0  0
   -0.2244   -0.2927    0.3759 H   0  0  0  0  0  0  0  0  0  0  0  0
   -1.9267   -0.2215    2.6181 H   0  0  0  0  0  0  0  0  0  0  0  0
   -0.8077    1.1019    2.1157 H   0  0  0  0  0  0  0  0  0  0  0  0
   -3.8008    0.8851    1.7068 H   0  0  0  0  0  0  0  0  0  0  0  0
   -2.7897    2.3520    2.0445 H   0  0  0  0  0  0  0  0  0  0  0  0
   -3.7738    1.5998   -0.4956 H   0  0  0  0  0  0  0  0  0  0  0  0
   -2.3128    2.6535   -0.2322 H   0  0  0  0  0  0  0  0  0  0  0  0
   -0.7367   -1.4392   -2.0758 H   0  0  0  0  0  0  0  0  0  0  0  0
   -0.5528   -0.4771   -3.5803 H   0  0  0  0  0  0  0  0  0  0  0  0
    0.9282    0.9948   -1.6874 H   0  0  0  0  0  0  0  0  0  0  0  0
    3.9549   -1.2452   -1.4181 H   0  0  0  0  0  0  0  0  0  0  0  0
    3.5255    0.4853   -1.6552 H   0  0  0  0  0  0  0  0  0  0  0  0
    2.8589   -2.4601    0.8841 H   0  0  0  0  0  0  0  0  0  0  0  0
    2.1846   -1.4137    3.1592 H   0  0  0  0  0  0  0  0  0  0  0  0
    2.0153    1.1411    2.8583 H   0  0  0  0  0  0  0  0  0  0  0  0
  1  2  3  0
  2  3  1  0
  3  4  1  0
  4  5  1  0
  5  6  1  0
  6  7  1  0
  7  8  1  0
  8  9  2  0
  8 10  1  0
 10 11  1  0
 11 12  1  0
 12 13  2  0
 12 14  1  0
 14 15  1  0
 15 16  2  0
 16 17  1  0
 17 18  1  0
 18 19  2  0
  7  3  1  0
 19 15  1  0
  3 20  1  6
  4 21  1  0
  4 22  1  0
  5 23  1  0
  5 24  1  0
  6 25  1  0
  6 26  1  0
 10 27  1  0
 10 28  1  0
 11 29  1  0
 14 30  1  0
 14 31  1  0
 16 32  1  0
 17 33  1  0
 18 34  1  0
M  END
$$$$
