
     RDKit          3D

 46 49  0  0  0  0  0  0  0  0999 V2000
    1.4865   -2.7876    0.4831 O   0  0  0  0  0  0  0  0  0  0  0  0
    1.5468   -1.5648    0.7881 C   0  0  0  0  0  0  0  0  0  0  0  0
    0.3949   -0.9189    1.5287 C   0  0  2  0  0  0  0  0  0  0  0  0
   -0.3277   -1.8463    2.4962 C   0  0  0  0  0  0  0  0  0  0  0  0
   -1.6808   -1.3161    2.6532 N   0  0  0  0  0  0  0  0  0  0  0  0
   -1.9673   -0.4985    1.4606 C   0  0  2  0  0  0  0  0  0  0  0  0
   -3.1564   -1.0112    0.6687 C   0  0  0  0  0  0  0  0  0  0  0  0
   -3.2783   -2.2533    0.4817 O   0  0  0  0  0  0  0  0  0  0  0  0
   -4.0956   -0.1118    0.0493 N   0  0  0  0  0  0  0  0  0  0  0  0
   -5.1627   -0.5741   -0.8214 C   0  0  0  0  0  0  0  0  0  0  0  0
   -5.7518    0.6788   -1.4549 C   0  0  0  0  0  0  0  0  0  0  0  0
   -5.2661    1.8483   -0.6033 C   0  0  0  0  0  0  0  0  0  0  0  0
   -4.0515    1.3370    0.1607 C   0  0  0  0  0  0  0  0  0  0  0  0
   -0.7057   -0.4644    0.5943 C   0  0  0  0  0  0  0  0  0  0  0  0
    2.6792   -0.7900    0.3562 N   0  0  0  0  0  0  0  0  0  0  0  0
    2.8396    0.6508    0.5721 C   0  0  0  0  0  0  0  0  0  0  0  0
    4.1197    0.9518   -0.1119 C   0  0  0  0  0  0  0  0  0  0  0  0
    4.7618    2.1860   -0.2252 C   0  0  0  0  0  0  0  0  0  0  0  0
    5.9799    2.2465   -0.9216 C   0  0  0  0  0  0  0  0  0  0  0  0
    6.5317    1.0814   -1.4885 C   0  0  0  0  0  0  0  0  0  0  0  0
    5.8681   -0.1499   -1.3617 C   0  0  0  0  0  0  0  0  0  0  0  0
    4.6590   -0.1864   -0.6652 C   0  0  0  0  0  0  0  0  0  0  0  0
    3.7902   -1.3599   -0.4094 C   0  0  0  0  0  0  0  0  0  0  0  0
    0.7562   -0.0433    2.1112 H   0  0  0  0  0  0  0  0  0  0  0  0
    0.1877   -1.8645    3.4802 H   0  0  0  0  0  0  0  0  0  0  0  0
   -0.3818   -2.8859    2.1000 H   0  0  0  0  0  0  0  0  0  0  0  0
   -2.3542   -2.1088    2.7741 H   0  0  0  0  0  0  0  0  0  0  0  0
   -2.1673    0.5307    1.8223 H   0  0  0  0  0  0  0  0  0  0  0  0
   -5.9299   -1.1069   -0.2189 H   0  0  0  0  0  0  0  0  0  0  0  0
   -4.7599   -1.2516   -1.6058 H   0  0  0  0  0  0  0  0  0  0  0  0
   -5.3645    0.7901   -2.4917 H   0  0  0  0  0  0  0  0  0  0  0  0
   -6.8622    0.6335   -1.4839 H   0  0  0  0  0  0  0  0  0  0  0  0
   -5.0066    2.7262   -1.2341 H   0  0  0  0  0  0  0  0  0  0  0  0
   -6.0642    2.1397    0.1146 H   0  0  0  0  0  0  0  0  0  0  0  0
   -4.1145    1.6480    1.2258 H   0  0  0  0  0  0  0  0  0  0  0  0
   -3.1133    1.7195   -0.2970 H   0  0  0  0  0  0  0  0  0  0  0  0
   -0.7929   -1.1661   -0.2674 H   0  0  0  0  0  0  0  0  0  0  0  0
   -0.5084    0.5590    0.2066 H   0  0  0  0  0  0  0  0  0  0  0  0
    2.0055    1.2120    0.0999 H   0  0  0  0  0  0  0  0  0  0  0  0
    2.9215    0.8762    1.6566 H   0  0  0  0  0  0  0  0  0  0  0  0
    4.3315    3.0769    0.2134 H   0  0  0  0  0  0  0  0  0  0  0  0
    6.4963    3.1921   -1.0228 H   0  0  0  0  0  0  0  0  0  0  0  0
    7.4706    1.1348   -2.0240 H   0  0  0  0  0  0  0  0  0  0  0  0
    6.2856   -1.0496   -1.7948 H   0  0  0  0  0  0  0  0  0  0  0  0
    3.4234   -1.7885   -1.3665 H   0  0  0  0  0  0  0  0  0  0  0  0
    4.3277   -2.1212    0.1951 H   0  0  0  0  0  0  0  0  0  0  0  0
  1  2  2  0
  2  3  1  0
  3  4  1  0
  4  5  1  0
  5  6  1  0
  6  7  1  0
  7  8  2  0
  7  9  1  0
  9 10  1  0
 10 11  1  0
 11 12  1  0
 12 13  1  0
  6 14  1  0
  2 15  1  0
 15 16  1  0
 16 17  1  0
 17 18  2  0
 18 19  1  0
 19 20  2  0
 20 21  1  0
 21 22  2  0
 22 23  1  0
 14  3  1  0
 23 15  1  0
 13  9  1  0
 22 17  1  0
  3 24  1  1
  4 25  1  0
  4 26  1  0
  5 27  1  0
  6 28  1  1
 10 29  1  0
 10 30  1  0
 11 31  1  0
 11 32  1  0
 12 33  1  0
 12 34  1  0
 13 35  1  0
 13 36  1  0
 14 37  1  0
 14 38  1  0
 16 39  1  0
 16 40  1  0
 18 41  1  0
 19 42  1  0
 20 43  1  0
 21 44  1  0
 23 45  1  0
 23 46  1  0
M  END
$$$$
