
     RDKit          3D

 53 55  0  0  0  0  0  0  0  0999 V2000
   -8.7502   -0.1302    0.0090 C   0  0  0  0  0  0  0  0  0  0  0  0
   -8.1158   -1.4244    0.5052 C   0  0  0  0  0  0  0  0  0  0  0  0
   -6.8292   -1.6113   -0.0813 O   0  0  0  0  0  0  0  0  0  0  0  0
   -5.6873   -0.9049    0.3183 C   0  0  0  0  0  0  0  0  0  0  0  0
   -5.7510   -0.0899    1.2799 O   0  0  0  0  0  0  0  0  0  0  0  0
   -4.4044   -1.1230   -0.3854 C   0  0  0  0  0  0  0  0  0  0  0  0
   -4.3225   -2.0281   -1.4539 C   0  0  0  0  0  0  0  0  0  0  0  0
   -3.1430   -2.2227   -2.0983 N   0  0  0  0  0  0  0  0  0  0  0  0
   -2.0118   -1.5598   -1.7443 C   0  0  0  0  0  0  0  0  0  0  0  0
   -2.0303   -0.6406   -0.6826 C   0  0  0  0  0  0  0  0  0  0  0  0
   -0.8323    0.0683   -0.2953 N   0  0  0  0  0  0  0  0  0  0  0  0
    0.1547    0.4635   -1.3138 C   0  0  0  0  0  0  0  0  0  0  0  0
    0.9082    1.7264   -0.8802 C   0  0  0  0  0  0  0  0  0  0  0  0
    1.5777    1.5815    0.5153 C   0  0  0  0  0  0  0  0  0  0  0  0
    3.1284    1.4212    0.4490 C   0  0  2  0  0  0  0  0  0  0  0  0
    3.7367    2.6701   -0.0254 N   0  0  0  0  0  0  0  0  0  0  0  0
    3.5825    0.2419   -0.4514 C   0  0  0  0  0  0  0  0  0  0  0  0
    5.0287   -0.1189   -0.2135 C   0  0  0  0  0  0  0  0  0  0  0  0
    6.0260    0.3347   -1.0946 C   0  0  0  0  0  0  0  0  0  0  0  0
    7.3683    0.0169   -0.8657 C   0  0  0  0  0  0  0  0  0  0  0  0
    8.3241    0.4581   -1.7201 F   0  0  0  0  0  0  0  0  0  0  0  0
    7.7259   -0.7528    0.2444 C   0  0  0  0  0  0  0  0  0  0  0  0
    6.7426   -1.2048    1.1281 C   0  0  0  0  0  0  0  0  0  0  0  0
    5.3982   -0.8900    0.9049 C   0  0  0  0  0  0  0  0  0  0  0  0
    4.4584   -1.3359    1.7770 F   0  0  0  0  0  0  0  0  0  0  0  0
    0.9173    0.4925    1.3985 C   0  0  0  0  0  0  0  0  0  0  0  0
   -0.5842    0.3753    1.1230 C   0  0  0  0  0  0  0  0  0  0  0  0
   -3.2434   -0.4297   -0.0053 C   0  0  0  0  0  0  0  0  0  0  0  0
   -8.1459    0.7447    0.3273 H   0  0  0  0  0  0  0  0  0  0  0  0
   -9.7723   -0.0299    0.4311 H   0  0  0  0  0  0  0  0  0  0  0  0
   -8.8180   -0.1425   -1.0994 H   0  0  0  0  0  0  0  0  0  0  0  0
   -8.0394   -1.4173    1.6143 H   0  0  0  0  0  0  0  0  0  0  0  0
   -8.7652   -2.2753    0.2103 H   0  0  0  0  0  0  0  0  0  0  0  0
   -5.1931   -2.5824   -1.7791 H   0  0  0  0  0  0  0  0  0  0  0  0
   -1.0963   -1.7630   -2.2831 H   0  0  0  0  0  0  0  0  0  0  0  0
    0.8672   -0.3708   -1.4831 H   0  0  0  0  0  0  0  0  0  0  0  0
   -0.3585    0.6833   -2.2757 H   0  0  0  0  0  0  0  0  0  0  0  0
    1.6445    2.0102   -1.6615 H   0  0  0  0  0  0  0  0  0  0  0  0
    0.1698    2.5579   -0.8368 H   0  0  0  0  0  0  0  0  0  0  0  0
    1.3825    2.5401    1.0483 H   0  0  0  0  0  0  0  0  0  0  0  0
    3.4853    1.2327    1.4883 H   0  0  0  0  0  0  0  0  0  0  0  0
    3.4596    3.4455    0.6196 H   0  0  0  0  0  0  0  0  0  0  0  0
    4.7751    2.5956    0.0693 H   0  0  0  0  0  0  0  0  0  0  0  0
    2.9718   -0.6635   -0.2667 H   0  0  0  0  0  0  0  0  0  0  0  0
    3.4308    0.5013   -1.5214 H   0  0  0  0  0  0  0  0  0  0  0  0
    5.7637    0.9373   -1.9554 H   0  0  0  0  0  0  0  0  0  0  0  0
    8.7651   -0.9982    0.4218 H   0  0  0  0  0  0  0  0  0  0  0  0
    7.0237   -1.7990    1.9880 H   0  0  0  0  0  0  0  0  0  0  0  0
    1.3730   -0.5033    1.2260 H   0  0  0  0  0  0  0  0  0  0  0  0
    1.0742    0.7392    2.4714 H   0  0  0  0  0  0  0  0  0  0  0  0
   -1.0931    1.3263    1.3915 H   0  0  0  0  0  0  0  0  0  0  0  0
   -0.9914   -0.4369    1.7645 H   0  0  0  0  0  0  0  0  0  0  0  0
   -3.2854    0.2846    0.8068 H   0  0  0  0  0  0  0  0  0  0  0  0
  1  2  1  0
  2  3  1  0
  3  4  1  0
  4  5  2  0
  4  6  1  0
  6  7  2  0
  7  8  1  0
  8  9  2  0
  9 10  1  0
 10 11  1  0
 11 12  1  0
 12 13  1  0
 13 14  1  0
 14 15  1  0
 15 16  1  0
 15 17  1  0
 17 18  1  0
 18 19  2  0
 19 20  1  0
 20 21  1  0
 20 22  2  0
 22 23  1  0
 23 24  2  0
 24 25  1  0
 14 26  1  0
 26 27  1  0
 10 28  2  0
 28  6  1  0
 27 11  1  0
 24 18  1  0
  1 29  1  0
  1 30  1  0
  1 31  1  0
  2 32  1  0
  2 33  1  0
  7 34  1  0
  9 35  1  0
 12 36  1  0
 12 37  1  0
 13 38  1  0
 13 39  1  0
 14 40  1  0
 15 41  1  1
 16 42  1  0
 16 43  1  0
 17 44  1  0
 17 45  1  0
 19 46  1  0
 22 47  1  0
 23 48  1  0
 26 49  1  0
 26 50  1  0
 27 51  1  0
 27 52  1  0
 28 53  1  0
M  END
$$$$
