
     RDKit          3D

 46 49  0  0  0  0  0  0  0  0999 V2000
    6.9117    0.9440   -0.4601 C   0  0  0  0  0  0  0  0  0  0  0  0
    6.7561   -0.8124   -0.2133 S   0  0  0  0  0  0  0  0  0  0  0  0
    8.0459   -1.3294    0.3585 O   0  0  0  0  0  0  0  0  0  0  0  0
    6.4967   -1.5068   -1.5207 O   0  0  0  0  0  0  0  0  0  0  0  0
    5.4725   -1.1496    0.9061 N   0  0  0  0  0  0  0  0  0  0  0  0
    4.0853   -0.8376    0.6784 C   0  0  0  0  0  0  0  0  0  0  0  0
    3.6143   -0.3979   -0.5692 C   0  0  0  0  0  0  0  0  0  0  0  0
    2.2614   -0.1075   -0.7595 C   0  0  0  0  0  0  0  0  0  0  0  0
    1.3346   -0.2589    0.2924 C   0  0  0  0  0  0  0  0  0  0  0  0
   -0.0514    0.0134    0.1267 C   0  0  0  0  0  0  0  0  0  0  0  0
   -0.9069   -0.0684    1.2495 C   0  0  0  0  0  0  0  0  0  0  0  0
   -0.4169   -0.4961    2.4830 C   0  0  0  0  0  0  0  0  0  0  0  0
    0.9295   -0.8136    2.6366 C   0  0  0  0  0  0  0  0  0  0  0  0
    1.8135   -0.6889    1.5573 C   0  0  0  0  0  0  0  0  0  0  0  0
    3.1747   -0.9813    1.7339 C   0  0  0  0  0  0  0  0  0  0  0  0
   -2.2631    0.2581    1.1428 O   0  0  0  0  0  0  0  0  0  0  0  0
   -2.8002    0.9022   -0.0110 C   0  0  0  0  0  0  0  0  0  0  0  0
   -4.3109    0.7978   -0.0301 C   0  0  0  0  0  0  0  0  0  0  0  0
   -4.9596   -0.3382    0.4911 C   0  0  0  0  0  0  0  0  0  0  0  0
   -6.3528   -0.4448    0.4396 C   0  0  0  0  0  0  0  0  0  0  0  0
   -6.9655   -1.5415    0.9503 F   0  0  0  0  0  0  0  0  0  0  0  0
   -7.1120    0.5739   -0.1423 C   0  0  0  0  0  0  0  0  0  0  0  0
   -8.4631    0.4704   -0.1944 F   0  0  0  0  0  0  0  0  0  0  0  0
   -6.4782    1.6972   -0.6788 C   0  0  0  0  0  0  0  0  0  0  0  0
   -5.0848    1.8101   -0.6308 C   0  0  0  0  0  0  0  0  0  0  0  0
   -4.4925    2.9035   -1.1750 F   0  0  0  0  0  0  0  0  0  0  0  0
   -2.1710    0.3085   -1.2846 C   0  0  0  0  0  0  0  0  0  0  0  0
   -2.5807   -1.0889   -1.4708 N   0  0  0  0  0  0  0  0  0  0  0  0
   -0.6325    0.4373   -1.2143 C   0  0  0  0  0  0  0  0  0  0  0  0
    5.9851    1.3510   -0.9121 H   0  0  0  0  0  0  0  0  0  0  0  0
    7.7675    1.1486   -1.1359 H   0  0  0  0  0  0  0  0  0  0  0  0
    7.0890    1.4393    0.5167 H   0  0  0  0  0  0  0  0  0  0  0  0
    5.7531   -1.5525    1.8283 H   0  0  0  0  0  0  0  0  0  0  0  0
    4.2807   -0.2768   -1.4093 H   0  0  0  0  0  0  0  0  0  0  0  0
    1.9611    0.2477   -1.7349 H   0  0  0  0  0  0  0  0  0  0  0  0
   -1.0855   -0.5764    3.3308 H   0  0  0  0  0  0  0  0  0  0  0  0
    1.2840   -1.1413    3.6069 H   0  0  0  0  0  0  0  0  0  0  0  0
    3.5335   -1.3146    2.7013 H   0  0  0  0  0  0  0  0  0  0  0  0
   -2.5155    1.9766    0.0491 H   0  0  0  0  0  0  0  0  0  0  0  0
   -4.3880   -1.1445    0.9334 H   0  0  0  0  0  0  0  0  0  0  0  0
   -7.0675    2.4809   -1.1374 H   0  0  0  0  0  0  0  0  0  0  0  0
   -2.5284    0.8966   -2.1599 H   0  0  0  0  0  0  0  0  0  0  0  0
   -2.2423   -1.4156   -2.4050 H   0  0  0  0  0  0  0  0  0  0  0  0
   -2.1284   -1.6934   -0.7472 H   0  0  0  0  0  0  0  0  0  0  0  0
   -0.2025   -0.1770   -2.0334 H   0  0  0  0  0  0  0  0  0  0  0  0
   -0.3498    1.4968   -1.3961 H   0  0  0  0  0  0  0  0  0  0  0  0
  1  2  1  0
  2  3  2  0
  2  4  2  0
  2  5  1  0
  5  6  1  0
  6  7  2  0
  7  8  1  0
  8  9  2  0
  9 10  1  0
 10 11  2  0
 11 12  1  0
 12 13  2  0
 13 14  1  0
 14 15  2  0
 11 16  1  0
 16 17  1  0
 17 18  1  0
 18 19  2  0
 19 20  1  0
 20 21  1  0
 20 22  2  0
 22 23  1  0
 22 24  1  0
 24 25  2  0
 25 26  1  0
 17 27  1  0
 27 28  1  0
 27 29  1  0
 15  6  1  0
 25 18  1  0
 14  9  1  0
 29 10  1  0
  1 30  1  0
  1 31  1  0
  1 32  1  0
  5 33  1  0
  7 34  1  0
  8 35  1  0
 12 36  1  0
 13 37  1  0
 15 38  1  0
 17 39  1  0
 19 40  1  0
 24 41  1  0
 27 42  1  0
 28 43  1  0
 28 44  1  0
 29 45  1  0
 29 46  1  0
M  END
$$$$
