
     RDKit          3D

 52 56  0  0  0  0  0  0  0  0999 V2000
   -2.6486   -1.1214    2.3165 N   0  0  0  0  0  0  0  0  0  0  0  0
   -2.3624    0.1685    1.6760 C   0  0  1  0  0  0  0  0  0  0  0  0
   -0.9488    0.1283    1.0393 C   0  0  0  0  0  0  0  0  0  0  0  0
   -0.8370    1.1124   -0.1549 C   0  0  1  0  0  0  0  0  0  0  0  0
    0.5249    1.2081   -0.7457 N   0  0  0  0  0  0  0  0  0  0  0  0
    1.1061   -0.0879   -1.1975 C   0  0  0  0  0  0  0  0  0  0  0  0
    2.2507   -0.3189   -0.2970 C   0  0  0  0  0  0  0  0  0  0  0  0
    3.4749   -0.9115   -0.5051 C   0  0  0  0  0  0  0  0  0  0  0  0
    4.3821   -0.1814    0.1777 N   0  0  0  0  0  0  0  0  0  0  0  0
    6.0936   -0.4169    0.1241 S   0  0  0  0  0  0  0  0  0  0  0  0
    6.4003   -1.8724    0.3463 O   0  0  0  0  0  0  0  0  0  0  0  0
    6.7381    0.3858    1.2186 O   0  0  0  0  0  0  0  0  0  0  0  0
    6.7094    0.1545   -1.4576 C   0  0  0  0  0  0  0  0  0  0  0  0
    7.9638   -0.5455   -1.9522 C   0  0  0  0  0  0  0  0  0  0  0  0
    6.6150   -0.8663   -2.5788 C   0  0  0  0  0  0  0  0  0  0  0  0
    3.8043    0.8847    0.7161 N   0  0  0  0  0  0  0  0  0  0  0  0
    2.4893    0.7601    0.4603 C   0  0  0  0  0  0  0  0  0  0  0  0
    1.5112    1.8291    0.1819 C   0  0  0  0  0  0  0  0  0  0  0  0
   -1.8970    0.7940   -1.2480 C   0  0  0  0  0  0  0  0  0  0  0  0
   -3.0681    0.0629   -0.7257 N   0  0  0  0  0  0  0  0  0  0  0  0
   -3.4478    0.5443    0.6157 C   0  0  0  0  0  0  0  0  0  0  0  0
   -4.8524    0.0957    0.9981 C   0  0  0  0  0  0  0  0  0  0  0  0
   -5.3517   -1.1673    0.6165 C   0  0  0  0  0  0  0  0  0  0  0  0
   -6.6292   -1.5758    1.0113 C   0  0  0  0  0  0  0  0  0  0  0  0
   -7.0973   -2.7904    0.6308 F   0  0  0  0  0  0  0  0  0  0  0  0
   -7.4193   -0.7394    1.8028 C   0  0  0  0  0  0  0  0  0  0  0  0
   -8.6573   -1.1368    2.1879 F   0  0  0  0  0  0  0  0  0  0  0  0
   -6.9296    0.5035    2.2078 C   0  0  0  0  0  0  0  0  0  0  0  0
   -5.6529    0.9195    1.8174 C   0  0  0  0  0  0  0  0  0  0  0  0
   -5.1961    2.1231    2.2481 F   0  0  0  0  0  0  0  0  0  0  0  0
   -1.8453   -1.3700    2.9392 H   0  0  0  0  0  0  0  0  0  0  0  0
   -3.4621   -0.9985    2.9622 H   0  0  0  0  0  0  0  0  0  0  0  0
   -2.3648    0.9622    2.4590 H   0  0  0  0  0  0  0  0  0  0  0  0
   -0.1985    0.3704    1.8209 H   0  0  0  0  0  0  0  0  0  0  0  0
   -0.7412   -0.9071    0.6989 H   0  0  0  0  0  0  0  0  0  0  0  0
   -1.1004    2.1207    0.2411 H   0  0  0  0  0  0  0  0  0  0  0  0
    0.3999   -0.9420   -1.1710 H   0  0  0  0  0  0  0  0  0  0  0  0
    1.4738    0.0301   -2.2392 H   0  0  0  0  0  0  0  0  0  0  0  0
    3.7125   -1.6898   -1.2184 H   0  0  0  0  0  0  0  0  0  0  0  0
    6.5866    1.2156   -1.7606 H   0  0  0  0  0  0  0  0  0  0  0  0
    8.6180    0.0831   -2.5925 H   0  0  0  0  0  0  0  0  0  0  0  0
    8.3666   -1.3534   -1.3058 H   0  0  0  0  0  0  0  0  0  0  0  0
    6.2161   -1.8659   -2.3050 H   0  0  0  0  0  0  0  0  0  0  0  0
    6.4732   -0.4277   -3.5890 H   0  0  0  0  0  0  0  0  0  0  0  0
    1.0655    2.2066    1.1278 H   0  0  0  0  0  0  0  0  0  0  0  0
    2.0166    2.6699   -0.3390 H   0  0  0  0  0  0  0  0  0  0  0  0
   -2.2433    1.7460   -1.7059 H   0  0  0  0  0  0  0  0  0  0  0  0
   -1.4501    0.2026   -2.0756 H   0  0  0  0  0  0  0  0  0  0  0  0
   -2.8124   -0.9513   -0.6716 H   0  0  0  0  0  0  0  0  0  0  0  0
   -3.4829    1.6576    0.5636 H   0  0  0  0  0  0  0  0  0  0  0  0
   -4.7575   -1.8468    0.0222 H   0  0  0  0  0  0  0  0  0  0  0  0
   -7.5386    1.1451    2.8318 H   0  0  0  0  0  0  0  0  0  0  0  0
  1  2  1  0
  2  3  1  0
  3  4  1  0
  4  5  1  0
  5  6  1  0
  6  7  1  0
  7  8  2  0
  8  9  1  0
  9 10  1  0
 10 11  2  0
 10 12  2  0
 10 13  1  0
 13 14  1  0
 14 15  1  0
  9 16  1  0
 16 17  2  0
 17 18  1  0
  4 19  1  0
 19 20  1  0
 20 21  1  0
 21 22  1  0
 22 23  2  0
 23 24  1  0
 24 25  1  0
 24 26  2  0
 26 27  1  0
 26 28  1  0
 28 29  2  0
 29 30  1  0
 21  2  1  0
 29 22  1  0
 18  5  1  0
 17  7  1  0
 15 13  1  0
  1 31  1  0
  1 32  1  0
  2 33  1  1
  3 34  1  0
  3 35  1  0
  4 36  1  1
  6 37  1  0
  6 38  1  0
  8 39  1  0
 13 40  1  0
 14 41  1  0
 14 42  1  0
 15 43  1  0
 15 44  1  0
 18 45  1  0
 18 46  1  0
 19 47  1  0
 19 48  1  0
 20 49  1  0
 21 50  1  0
 23 51  1  0
 28 52  1  0
M  END
$$$$
