
     RDKit          3D

 54 57  0  0  0  0  0  0  0  0999 V2000
    9.4632    1.4301   -1.4135 C   0  0  0  0  0  0  0  0  0  0  0  0
    8.4206    2.5262   -1.2268 C   0  0  0  0  0  0  0  0  0  0  0  0
    7.1485    1.9626   -0.9133 O   0  0  0  0  0  0  0  0  0  0  0  0
    6.3213    1.3455   -1.8608 C   0  0  0  0  0  0  0  0  0  0  0  0
    6.6634    1.3145   -3.0753 O   0  0  0  0  0  0  0  0  0  0  0  0
    5.0417    0.7367   -1.4348 C   0  0  0  0  0  0  0  0  0  0  0  0
    4.6562    0.7674   -0.0857 C   0  0  0  0  0  0  0  0  0  0  0  0
    3.4491    0.1932    0.3222 C   0  0  0  0  0  0  0  0  0  0  0  0
    2.5948   -0.4274   -0.6098 C   0  0  0  0  0  0  0  0  0  0  0  0
    1.3435   -1.0217   -0.1878 N   0  0  0  0  0  0  0  0  0  0  0  0
    0.8747   -1.0299    1.1922 C   0  0  0  0  0  0  0  0  0  0  0  0
   -0.4718   -1.7379    1.1898 C   0  0  2  0  0  0  0  0  0  0  0  0
   -0.7562   -2.1557   -0.2468 C   0  0  2  0  0  0  0  0  0  0  0  0
    0.4155   -1.6861   -1.0941 C   0  0  0  0  0  0  0  0  0  0  0  0
   -1.5848   -1.0524    0.4043 C   0  0  1  0  0  0  0  0  0  0  0  0
   -2.9315   -1.4539    0.8343 N   0  0  0  0  0  0  0  0  0  0  0  0
   -3.8900   -1.1589   -0.2329 C   0  0  0  0  0  0  0  0  0  0  0  0
   -5.2892   -1.4005    0.2590 C   0  0  0  0  0  0  0  0  0  0  0  0
   -5.7789   -2.5554    0.1301 O   0  0  0  0  0  0  0  0  0  0  0  0
   -6.0665   -0.3671    0.9000 N   0  0  0  0  0  0  0  0  0  0  0  0
   -7.4810   -0.5417    1.1887 C   0  0  0  0  0  0  0  0  0  0  0  0
   -8.0209    0.8542    1.4683 C   0  0  1  0  0  0  0  0  0  0  0  0
   -8.9253    0.8369    2.5171 F   0  0  0  0  0  0  0  0  0  0  0  0
   -6.8042    1.7118    1.8038 C   0  0  0  0  0  0  0  0  0  0  0  0
   -5.6054    0.9887    1.1827 C   0  0  1  0  0  0  0  0  0  0  0  0
   -4.4643    0.9770    2.1139 C   0  0  0  0  0  0  0  0  0  0  0  0
   -3.5683    0.9701    2.8464 N   0  0  0  0  0  0  0  0  0  0  0  0
    2.9870   -0.4559   -1.9621 C   0  0  0  0  0  0  0  0  0  0  0  0
    4.1944    0.1186   -2.3687 C   0  0  0  0  0  0  0  0  0  0  0  0
    9.5221    0.8037   -0.4983 H   0  0  0  0  0  0  0  0  0  0  0  0
   10.4571    1.8883   -1.6007 H   0  0  0  0  0  0  0  0  0  0  0  0
    9.1989    0.7868   -2.2785 H   0  0  0  0  0  0  0  0  0  0  0  0
    8.3519    3.1545   -2.1414 H   0  0  0  0  0  0  0  0  0  0  0  0
    8.7354    3.1775   -0.3846 H   0  0  0  0  0  0  0  0  0  0  0  0
    5.2876    1.2355    0.6592 H   0  0  0  0  0  0  0  0  0  0  0  0
    3.1908    0.2386    1.3713 H   0  0  0  0  0  0  0  0  0  0  0  0
    0.7575    0.0086    1.5698 H   0  0  0  0  0  0  0  0  0  0  0  0
    1.5879   -1.5929    1.8310 H   0  0  0  0  0  0  0  0  0  0  0  0
   -0.7230   -2.5156    1.9429 H   0  0  0  0  0  0  0  0  0  0  0  0
   -1.1783   -3.1786   -0.3490 H   0  0  0  0  0  0  0  0  0  0  0  0
    0.0608   -0.9795   -1.8750 H   0  0  0  0  0  0  0  0  0  0  0  0
    0.9079   -2.5638   -1.5642 H   0  0  0  0  0  0  0  0  0  0  0  0
   -1.4083    0.0104    0.1248 H   0  0  0  0  0  0  0  0  0  0  0  0
   -2.9734   -2.4820    1.0353 H   0  0  0  0  0  0  0  0  0  0  0  0
   -3.7890   -0.1058   -0.5722 H   0  0  0  0  0  0  0  0  0  0  0  0
   -3.6921   -1.8121   -1.1130 H   0  0  0  0  0  0  0  0  0  0  0  0
   -7.5975   -1.2013    2.0759 H   0  0  0  0  0  0  0  0  0  0  0  0
   -8.0074   -0.9871    0.3163 H   0  0  0  0  0  0  0  0  0  0  0  0
   -8.5182    1.2537    0.5570 H   0  0  0  0  0  0  0  0  0  0  0  0
   -6.7077    1.7881    2.9112 H   0  0  0  0  0  0  0  0  0  0  0  0
   -6.9133    2.7367    1.3867 H   0  0  0  0  0  0  0  0  0  0  0  0
   -5.3137    1.4915    0.2356 H   0  0  0  0  0  0  0  0  0  0  0  0
    2.3645   -0.9218   -2.7136 H   0  0  0  0  0  0  0  0  0  0  0  0
    4.4636    0.0777   -3.4169 H   0  0  0  0  0  0  0  0  0  0  0  0
  1  2  1  0
  2  3  1  0
  3  4  1  0
  4  5  2  0
  4  6  1  0
  6  7  2  0
  7  8  1  0
  8  9  2  0
  9 10  1  0
 10 11  1  0
 11 12  1  0
 12 13  1  0
 13 14  1  0
 13 15  1  0
 15 16  1  0
 16 17  1  0
 17 18  1  0
 18 19  2  0
 18 20  1  0
 20 21  1  0
 21 22  1  0
 22 23  1  0
 22 24  1  0
 24 25  1  0
 25 26  1  0
 26 27  3  0
  9 28  1  0
 28 29  2  0
 29  6  1  0
 14 10  1  0
 25 20  1  0
 15 12  1  0
  1 30  1  0
  1 31  1  0
  1 32  1  0
  2 33  1  0
  2 34  1  0
  7 35  1  0
  8 36  1  0
 11 37  1  0
 11 38  1  0
 12 39  1  1
 13 40  1  1
 14 41  1  0
 14 42  1  0
 15 43  1  6
 16 44  1  0
 17 45  1  0
 17 46  1  0
 21 47  1  0
 21 48  1  0
 22 49  1  6
 24 50  1  0
 24 51  1  0
 25 52  1  6
 28 53  1  0
 29 54  1  0
M  END
$$$$
