
     RDKit          3D

 43 45  0  0  0  0  0  0  0  0999 V2000
   -2.5001   -2.1148   -0.3136 N   0  0  0  0  0  0  0  0  0  0  0  0
   -1.7971   -1.6412    0.8841 C   0  0  1  0  0  0  0  0  0  0  0  0
   -0.4766   -2.4127    1.1237 C   0  0  0  0  0  0  0  0  0  0  0  0
    0.4739   -2.3572   -0.0502 C   0  0  0  0  0  0  0  0  0  0  0  0
    0.3818   -3.2489   -0.9375 O   0  0  0  0  0  0  0  0  0  0  0  0
    1.4214   -1.2838   -0.2245 N   0  0  0  0  0  0  0  0  0  0  0  0
    2.0409   -0.6377    0.9571 C   0  0  0  0  0  0  0  0  0  0  0  0
    3.4624   -0.1259    0.6702 C   0  0  0  0  0  0  0  0  0  0  0  0
    3.4666    0.6080   -0.6230 C   0  0  0  0  0  0  0  0  0  0  0  0
    2.6261    0.3201   -1.6539 C   0  0  0  0  0  0  0  0  0  0  0  0
    2.9484    1.0632   -2.7295 N   0  0  0  0  0  0  0  0  0  0  0  0
    3.9708    1.7950   -2.3780 O   0  0  0  0  0  0  0  0  0  0  0  0
    4.3287    1.5530   -1.1337 C   0  0  0  0  0  0  0  0  0  0  0  0
    5.4782    2.2019   -0.4315 C   0  0  0  0  0  0  0  0  0  0  0  0
    5.0111    2.9333    0.6444 F   0  0  0  0  0  0  0  0  0  0  0  0
    6.1440    3.0478   -1.2993 F   0  0  0  0  0  0  0  0  0  0  0  0
    6.3560    1.2334    0.0187 F   0  0  0  0  0  0  0  0  0  0  0  0
    1.5739   -0.7374   -1.5921 C   0  0  0  0  0  0  0  0  0  0  0  0
   -1.5756   -0.1166    0.8217 C   0  0  0  0  0  0  0  0  0  0  0  0
   -2.8854    0.6293    0.7504 C   0  0  0  0  0  0  0  0  0  0  0  0
   -3.6111    0.8796    1.9278 C   0  0  0  0  0  0  0  0  0  0  0  0
   -4.8386    1.5470    1.8729 C   0  0  0  0  0  0  0  0  0  0  0  0
   -5.5307    1.7873    3.0137 F   0  0  0  0  0  0  0  0  0  0  0  0
   -5.3542    1.9634    0.6429 C   0  0  0  0  0  0  0  0  0  0  0  0
   -4.6449    1.7111   -0.5341 C   0  0  0  0  0  0  0  0  0  0  0  0
   -3.4164    1.0439   -0.4863 C   0  0  0  0  0  0  0  0  0  0  0  0
   -2.7492    0.8031   -1.6435 F   0  0  0  0  0  0  0  0  0  0  0  0
   -1.9339   -1.9021   -1.1665 H   0  0  0  0  0  0  0  0  0  0  0  0
   -2.6142   -3.1529   -0.2548 H   0  0  0  0  0  0  0  0  0  0  0  0
   -2.4489   -1.8467    1.7629 H   0  0  0  0  0  0  0  0  0  0  0  0
    0.0027   -2.0350    2.0486 H   0  0  0  0  0  0  0  0  0  0  0  0
   -0.7219   -3.4781    1.3270 H   0  0  0  0  0  0  0  0  0  0  0  0
    2.1186   -1.3595    1.7976 H   0  0  0  0  0  0  0  0  0  0  0  0
    1.4047    0.2129    1.2814 H   0  0  0  0  0  0  0  0  0  0  0  0
    4.1622   -0.9858    0.5973 H   0  0  0  0  0  0  0  0  0  0  0  0
    3.7950    0.5421    1.4930 H   0  0  0  0  0  0  0  0  0  0  0  0
    0.6071   -0.3114   -1.9349 H   0  0  0  0  0  0  0  0  0  0  0  0
    1.8697   -1.5525   -2.2866 H   0  0  0  0  0  0  0  0  0  0  0  0
   -1.0260    0.2127    1.7304 H   0  0  0  0  0  0  0  0  0  0  0  0
   -0.9398    0.1457   -0.0492 H   0  0  0  0  0  0  0  0  0  0  0  0
   -3.2251    0.5558    2.8866 H   0  0  0  0  0  0  0  0  0  0  0  0
   -6.3049    2.4792    0.6002 H   0  0  0  0  0  0  0  0  0  0  0  0
   -5.0499    2.0314   -1.4855 H   0  0  0  0  0  0  0  0  0  0  0  0
  1  2  1  0
  2  3  1  0
  3  4  1  0
  4  5  2  0
  4  6  1  0
  6  7  1  0
  7  8  1  0
  8  9  1  0
  9 10  1  0
 10 11  2  0
 11 12  1  0
 12 13  1  0
 13 14  1  0
 14 15  1  0
 14 16  1  0
 14 17  1  0
 10 18  1  0
  2 19  1  0
 19 20  1  0
 20 21  2  0
 21 22  1  0
 22 23  1  0
 22 24  2  0
 24 25  1  0
 25 26  2  0
 26 27  1  0
 18  6  1  0
 26 20  1  0
 13  9  2  0
  1 28  1  0
  1 29  1  0
  2 30  1  1
  3 31  1  0
  3 32  1  0
  7 33  1  0
  7 34  1  0
  8 35  1  0
  8 36  1  0
 18 37  1  0
 18 38  1  0
 19 39  1  0
 19 40  1  0
 21 41  1  0
 24 42  1  0
 25 43  1  0
M  END
$$$$
