
     RDKit          3D

 84 89  0  0  0  0  0  0  0  0999 V2000
    0.6878    0.0000    0.0000 Cl  0  0  0  0  0  0  0  0  0  0  0  0
    0.6878    0.0000    0.0000 Cl  0  0  0  0  0  0  0  0  0  0  0  0
   -8.6082   -1.1019    0.0856 N   0  0  0  0  0  0  0  0  0  0  0  0
   -7.4045   -0.2872    0.2851 C   0  0  0  0  0  0  0  0  0  0  0  0
   -7.5643    0.5692    1.5666 C   0  0  0  0  0  0  0  0  0  0  0  0
   -6.3065    1.4377    1.7767 C   0  0  0  0  0  0  0  0  0  0  0  0
   -6.1152    2.3700    0.5609 C   0  0  0  0  0  0  0  0  0  0  0  0
   -5.9515    1.5245   -0.7207 C   0  0  0  0  0  0  0  0  0  0  0  0
   -7.2095    0.6560   -0.9287 C   0  0  0  0  0  0  0  0  0  0  0  0
   -4.7110    0.6147   -0.5841 C   0  0  0  0  0  0  0  0  0  0  0  0
   -4.8727   -0.3239    0.6438 C   0  0  0  0  0  0  0  0  0  0  0  0
   -3.7032   -1.2131    0.7791 N   0  0  0  0  0  0  0  0  0  0  0  0
   -2.3488   -0.7818    0.9835 C   0  0  0  0  0  0  0  0  0  0  0  0
   -2.0716    0.4440    1.0696 O   0  0  0  0  0  0  0  0  0  0  0  0
   -1.3429   -1.7543    1.0850 O   0  0  0  0  0  0  0  0  0  0  0  0
    0.0581   -1.5132    1.2804 C   0  0  0  0  0  0  0  0  0  0  0  0
    0.7646   -2.8918    1.3278 C   0  0  0  0  0  0  0  0  0  0  0  0
    2.2820   -2.7141    1.5490 C   0  0  0  0  0  0  0  0  0  0  0  0
    2.5243   -1.9762    2.8795 C   0  0  0  0  0  0  0  0  0  0  0  0
    1.8370   -0.5983    2.8303 C   0  0  0  0  0  0  0  0  0  0  0  0
    2.4202    0.2238    1.6615 C   0  0  0  0  0  0  0  0  0  0  0  0
    2.1907   -0.5010    0.3044 C   0  0  0  0  0  0  0  0  0  0  0  0
    2.7812    0.3504   -0.7573 N   0  0  0  0  0  0  0  0  0  0  0  0
    2.8633   -0.2389   -2.1054 C   0  0  0  0  0  0  0  0  0  0  0  0
    4.2508   -0.7558   -2.3585 C   0  0  0  0  0  0  0  0  0  0  0  0
    4.4186   -1.9898   -2.5554 O   0  0  0  0  0  0  0  0  0  0  0  0
    5.3846    0.1277   -2.3867 N   0  0  0  0  0  0  0  0  0  0  0  0
    6.7553   -0.3386   -2.6060 C   0  0  0  0  0  0  0  0  0  0  0  0
    7.5421    0.9177   -2.5971 C   0  0  0  0  0  0  0  0  0  0  0  0
    8.9200    1.0679   -2.7628 C   0  0  0  0  0  0  0  0  0  0  0  0
    9.4631    2.3623   -2.7198 C   0  0  0  0  0  0  0  0  0  0  0  0
    8.6266    3.4763   -2.5136 C   0  0  0  0  0  0  0  0  0  0  0  0
    7.2429    3.3014   -2.3494 C   0  0  0  0  0  0  0  0  0  0  0  0
    6.7248    2.0061   -2.3964 C   0  0  0  0  0  0  0  0  0  0  0  0
    5.3115    1.5848   -2.2463 C   0  0  0  0  0  0  0  0  0  0  0  0
    2.8776   -1.8963    0.3840 C   0  0  0  0  0  0  0  0  0  0  0  0
    0.6557   -0.6902    0.1053 C   0  0  0  0  0  0  0  0  0  0  0  0
    0.3189   -0.7808    2.6232 C   0  0  0  0  0  0  0  0  0  0  0  0
   -5.0683    0.5272    1.9292 C   0  0  0  0  0  0  0  0  0  0  0  0
   -6.1488   -1.1888    0.4323 C   0  0  0  0  0  0  0  0  0  0  0  0
   -0.6878    0.0000    0.0000 H   0  0  0  0  0  0  0  0  0  0  0  0
   -0.6878    0.0000    0.0000 H   0  0  0  0  0  0  0  0  0  0  0  0
   -8.7212   -1.7547    0.8957 H   0  0  0  0  0  0  0  0  0  0  0  0
   -8.4849   -1.6969   -0.7663 H   0  0  0  0  0  0  0  0  0  0  0  0
   -7.7155   -0.0871    2.4523 H   0  0  0  0  0  0  0  0  0  0  0  0
   -8.4617    1.2215    1.4815 H   0  0  0  0  0  0  0  0  0  0  0  0
   -6.4305    2.0502    2.6962 H   0  0  0  0  0  0  0  0  0  0  0  0
   -6.9924    3.0464    0.4597 H   0  0  0  0  0  0  0  0  0  0  0  0
   -5.2186    3.0110    0.7107 H   0  0  0  0  0  0  0  0  0  0  0  0
   -5.8205    2.1995   -1.5944 H   0  0  0  0  0  0  0  0  0  0  0  0
   -8.1014    1.3096   -1.0526 H   0  0  0  0  0  0  0  0  0  0  0  0
   -7.1018    0.0631   -1.8640 H   0  0  0  0  0  0  0  0  0  0  0  0
   -3.8110    1.2559   -0.4826 H   0  0  0  0  0  0  0  0  0  0  0  0
   -4.5811    0.0118   -1.5100 H   0  0  0  0  0  0  0  0  0  0  0  0
   -3.8494   -2.2469    0.7222 H   0  0  0  0  0  0  0  0  0  0  0  0
    0.5859   -3.4437    0.3783 H   0  0  0  0  0  0  0  0  0  0  0  0
    0.3374   -3.5091    2.1491 H   0  0  0  0  0  0  0  0  0  0  0  0
    2.7699   -3.7125    1.5871 H   0  0  0  0  0  0  0  0  0  0  0  0
    3.6159   -1.8518    3.0528 H   0  0  0  0  0  0  0  0  0  0  0  0
    2.1195   -2.5738    3.7257 H   0  0  0  0  0  0  0  0  0  0  0  0
    2.0178   -0.0617    3.7871 H   0  0  0  0  0  0  0  0  0  0  0  0
    1.9433    1.2291    1.6450 H   0  0  0  0  0  0  0  0  0  0  0  0
    3.5092    0.3837    1.8264 H   0  0  0  0  0  0  0  0  0  0  0  0
    2.2343    1.2420   -0.8196 H   0  0  0  0  0  0  0  0  0  0  0  0
    2.1165   -1.0423   -2.2668 H   0  0  0  0  0  0  0  0  0  0  0  0
    2.6461    0.5396   -2.8693 H   0  0  0  0  0  0  0  0  0  0  0  0
    6.8409   -0.8452   -3.5909 H   0  0  0  0  0  0  0  0  0  0  0  0
    7.0746   -1.0069   -1.7780 H   0  0  0  0  0  0  0  0  0  0  0  0
    9.5563    0.2068   -2.9208 H   0  0  0  0  0  0  0  0  0  0  0  0
   10.5286    2.5040   -2.8456 H   0  0  0  0  0  0  0  0  0  0  0  0
    9.0515    4.4711   -2.4811 H   0  0  0  0  0  0  0  0  0  0  0  0
    6.5936    4.1525   -2.1897 H   0  0  0  0  0  0  0  0  0  0  0  0
    4.6870    2.0244   -3.0527 H   0  0  0  0  0  0  0  0  0  0  0  0
    4.9342    1.8637   -1.2402 H   0  0  0  0  0  0  0  0  0  0  0  0
    3.9743   -1.7763    0.5273 H   0  0  0  0  0  0  0  0  0  0  0  0
    2.7229   -2.4719   -0.5522 H   0  0  0  0  0  0  0  0  0  0  0  0
    0.4348   -1.2186   -0.8451 H   0  0  0  0  0  0  0  0  0  0  0  0
    0.1732    0.3072    0.0426 H   0  0  0  0  0  0  0  0  0  0  0  0
   -0.1657    0.2176    2.6345 H   0  0  0  0  0  0  0  0  0  0  0  0
   -0.1111   -1.3654    3.4661 H   0  0  0  0  0  0  0  0  0  0  0  0
   -4.1820    1.1651    2.1261 H   0  0  0  0  0  0  0  0  0  0  0  0
   -5.1956   -0.1385    2.8113 H   0  0  0  0  0  0  0  0  0  0  0  0
   -6.2810   -1.8799    1.2949 H   0  0  0  0  0  0  0  0  0  0  0  0
   -6.0289   -1.8182   -0.4780 H   0  0  0  0  0  0  0  0  0  0  0  0
  3  4  1  0
  4  5  1  0
  5  6  1  0
  6  7  1  0
  7  8  1  0
  8  9  1  0
  8 10  1  0
 10 11  1  0
 11 12  1  0
 12 13  1  0
 13 14  2  0
 13 15  1  0
 15 16  1  0
 16 17  1  0
 17 18  1  0
 18 19  1  0
 19 20  1  0
 20 21  1  0
 21 22  1  0
 22 23  1  0
 23 24  1  0
 24 25  1  0
 25 26  2  0
 25 27  1  0
 27 28  1  0
 28 29  1  0
 29 30  2  0
 30 31  1  0
 31 32  2  0
 32 33  1  0
 33 34  2  0
 34 35  1  0
 22 36  1  0
 22 37  1  0
 20 38  1  0
 11 39  1  0
 11 40  1  0
  9  4  1  0
 37 16  1  0
 40  4  1  0
 39  6  1  0
 38 16  1  0
 36 18  1  0
 35 27  1  0
 34 29  1  0
  1 41  1  0
  2 42  1  0
  3 43  1  0
  3 44  1  0
  5 45  1  0
  5 46  1  0
  6 47  1  0
  7 48  1  0
  7 49  1  0
  8 50  1  0
  9 51  1  0
  9 52  1  0
 10 53  1  0
 10 54  1  0
 12 55  1  0
 17 56  1  0
 17 57  1  0
 18 58  1  0
 19 59  1  0
 19 60  1  0
 20 61  1  0
 21 62  1  0
 21 63  1  0
 23 64  1  0
 24 65  1  0
 24 66  1  0
 28 67  1  0
 28 68  1  0
 30 69  1  0
 31 70  1  0
 32 71  1  0
 33 72  1  0
 35 73  1  0
 35 74  1  0
 36 75  1  0
 36 76  1  0
 37 77  1  0
 37 78  1  0
 38 79  1  0
 38 80  1  0
 39 81  1  0
 39 82  1  0
 40 83  1  0
 40 84  1  0
M  END
$$$$
