
     RDKit          3D

 56 58  0  0  0  0  0  0  0  0999 V2000
    7.6969    2.6780    0.3983 N   0  0  0  0  0  0  0  0  0  0  0  0
    7.0568    1.4085    0.3050 C   0  0  0  0  0  0  0  0  0  0  0  0
    7.7423    0.3807    0.0530 O   0  0  0  0  0  0  0  0  0  0  0  0
    5.6746    1.3180    0.5031 O   0  0  0  0  0  0  0  0  0  0  0  0
    4.9370    0.1000    0.3846 C   0  0  2  0  0  0  0  0  0  0  0  0
    4.7624   -0.2768   -1.0937 C   0  0  0  0  0  0  0  0  0  0  0  0
    3.9420   -1.5684   -1.2579 C   0  0  0  0  0  0  0  0  0  0  0  0
    3.0724   -1.8708   -0.0241 C   0  0  0  0  0  0  0  0  0  0  0  0
    2.4915   -0.6411    0.5609 N   0  0  0  0  0  0  0  0  0  0  0  0
    1.4711    0.0836   -0.2636 C   0  0  1  0  0  0  0  0  0  0  0  0
    0.4937   -0.8467   -1.0404 C   0  0  0  0  0  0  0  0  0  0  0  0
   -0.5586   -1.4466   -0.1032 C   0  0  0  0  0  0  0  0  0  0  0  0
   -1.4509   -0.3520    0.5543 C   0  0  2  0  0  0  0  0  0  0  0  0
   -2.9177   -0.4361    0.0440 C   0  0  2  0  0  0  0  0  0  0  0  0
   -2.9760   -0.2288   -1.4090 N   0  0  0  0  0  0  0  0  0  0  0  0
   -3.8592    0.5341    0.7992 C   0  0  0  0  0  0  0  0  0  0  0  0
   -5.3099    0.2491    0.4973 C   0  0  0  0  0  0  0  0  0  0  0  0
   -5.9849    0.9930   -0.4861 C   0  0  0  0  0  0  0  0  0  0  0  0
   -7.3215    0.7150   -0.7886 C   0  0  0  0  0  0  0  0  0  0  0  0
   -7.9660    1.4381   -1.7372 F   0  0  0  0  0  0  0  0  0  0  0  0
   -7.9926   -0.3099   -0.1165 C   0  0  0  0  0  0  0  0  0  0  0  0
   -7.3280   -1.0600    0.8571 C   0  0  0  0  0  0  0  0  0  0  0  0
   -5.9908   -0.7872    1.1639 C   0  0  0  0  0  0  0  0  0  0  0  0
   -5.3611   -1.5328    2.1072 F   0  0  0  0  0  0  0  0  0  0  0  0
   -0.8445    1.0704    0.4136 C   0  0  0  0  0  0  0  0  0  0  0  0
    0.6706    1.0588    0.6608 C   0  0  0  0  0  0  0  0  0  0  0  0
    3.5594    0.2686    1.0746 C   0  0  0  0  0  0  0  0  0  0  0  0
    8.7278    2.7636    0.2561 H   0  0  0  0  0  0  0  0  0  0  0  0
    7.1370    3.5334    0.6092 H   0  0  0  0  0  0  0  0  0  0  0  0
    5.4927   -0.7141    0.9036 H   0  0  0  0  0  0  0  0  0  0  0  0
    4.2587    0.5592   -1.6253 H   0  0  0  0  0  0  0  0  0  0  0  0
    5.7561   -0.4145   -1.5710 H   0  0  0  0  0  0  0  0  0  0  0  0
    3.3033   -1.4810   -2.1621 H   0  0  0  0  0  0  0  0  0  0  0  0
    4.6299   -2.4263   -1.4226 H   0  0  0  0  0  0  0  0  0  0  0  0
    3.7095   -2.3612    0.7455 H   0  0  0  0  0  0  0  0  0  0  0  0
    2.3002   -2.6338   -0.2431 H   0  0  0  0  0  0  0  0  0  0  0  0
    1.9914    0.6928   -1.0351 H   0  0  0  0  0  0  0  0  0  0  0  0
    1.0029   -1.6392   -1.6189 H   0  0  0  0  0  0  0  0  0  0  0  0
   -0.0273   -0.2500   -1.8210 H   0  0  0  0  0  0  0  0  0  0  0  0
   -0.0373   -2.0247    0.6913 H   0  0  0  0  0  0  0  0  0  0  0  0
   -1.1683   -2.1805   -0.6741 H   0  0  0  0  0  0  0  0  0  0  0  0
   -1.4782   -0.5805    1.6443 H   0  0  0  0  0  0  0  0  0  0  0  0
   -3.2675   -1.4718    0.2615 H   0  0  0  0  0  0  0  0  0  0  0  0
   -2.9798    0.7935   -1.6277 H   0  0  0  0  0  0  0  0  0  0  0  0
   -3.8753   -0.6227   -1.7692 H   0  0  0  0  0  0  0  0  0  0  0  0
   -3.6204    1.5874    0.5358 H   0  0  0  0  0  0  0  0  0  0  0  0
   -3.6939    0.4373    1.8945 H   0  0  0  0  0  0  0  0  0  0  0  0
   -5.4746    1.7850   -1.0202 H   0  0  0  0  0  0  0  0  0  0  0  0
   -9.0270   -0.5256   -0.3512 H   0  0  0  0  0  0  0  0  0  0  0  0
   -7.8499   -1.8559    1.3727 H   0  0  0  0  0  0  0  0  0  0  0  0
   -1.3153    1.7527    1.1538 H   0  0  0  0  0  0  0  0  0  0  0  0
   -1.0355    1.4924   -0.5951 H   0  0  0  0  0  0  0  0  0  0  0  0
    0.8299    0.7887    1.7286 H   0  0  0  0  0  0  0  0  0  0  0  0
    1.0545    2.0938    0.5276 H   0  0  0  0  0  0  0  0  0  0  0  0
    3.2604    1.3362    0.9945 H   0  0  0  0  0  0  0  0  0  0  0  0
    3.6874    0.0749    2.1611 H   0  0  0  0  0  0  0  0  0  0  0  0
  1  2  1  0
  2  3  2  0
  2  4  1  0
  4  5  1  0
  5  6  1  0
  6  7  1  0
  7  8  1  0
  8  9  1  0
  9 10  1  0
 10 11  1  0
 11 12  1  0
 12 13  1  0
 13 14  1  0
 14 15  1  0
 14 16  1  0
 16 17  1  0
 17 18  2  0
 18 19  1  0
 19 20  1  0
 19 21  2  0
 21 22  1  0
 22 23  2  0
 23 24  1  0
 13 25  1  0
 25 26  1  0
  9 27  1  0
 27  5  1  0
 26 10  1  0
 23 17  1  0
  1 28  1  0
  1 29  1  0
  5 30  1  1
  6 31  1  0
  6 32  1  0
  7 33  1  0
  7 34  1  0
  8 35  1  0
  8 36  1  0
 10 37  1  6
 11 38  1  0
 11 39  1  0
 12 40  1  0
 12 41  1  0
 13 42  1  1
 14 43  1  6
 15 44  1  0
 15 45  1  0
 16 46  1  0
 16 47  1  0
 18 48  1  0
 21 49  1  0
 22 50  1  0
 25 51  1  0
 25 52  1  0
 26 53  1  0
 26 54  1  0
 27 55  1  0
 27 56  1  0
M  END
$$$$
