
     RDKit          3D

 44 46  0  0  0  0  0  0  0  0999 V2000
   -5.8794    1.7634   -2.0039 N   0  0  0  0  0  0  0  0  0  0  0  0
   -5.2052    0.8628   -1.7326 C   0  0  0  0  0  0  0  0  0  0  0  0
   -4.3467   -0.2826   -1.3872 C   0  0  2  0  0  0  0  0  0  0  0  0
   -5.0674   -1.2449   -0.4453 C   0  0  0  0  0  0  0  0  0  0  0  0
   -4.5657   -0.9014    0.9526 C   0  0  0  0  0  0  0  0  0  0  0  0
   -3.2211   -0.2133    0.7521 C   0  0  0  0  0  0  0  0  0  0  0  0
   -3.1763    0.1770   -0.6514 N   0  0  0  0  0  0  0  0  0  0  0  0
   -2.0822    0.8705   -1.2944 C   0  0  0  0  0  0  0  0  0  0  0  0
   -2.2206    1.2605   -2.4859 O   0  0  0  0  0  0  0  0  0  0  0  0
   -0.7433    1.0975   -0.6300 C   0  0  2  0  0  0  0  0  0  0  0  0
    0.0740   -0.1828   -0.5309 C   0  0  0  0  0  0  0  0  0  0  0  0
    0.9016    0.0154    0.7231 C   0  0  2  0  0  0  0  0  0  0  0  0
    1.1888   -1.2547    1.4080 N   0  0  0  0  0  0  0  0  0  0  0  0
    2.3483   -2.2063    0.5223 S   0  0  0  0  0  0  0  0  0  0  0  0
    2.7856   -3.3638    1.3753 O   0  0  0  0  0  0  0  0  0  0  0  0
    1.7088   -2.7560   -0.7224 O   0  0  0  0  0  0  0  0  0  0  0  0
    3.7664   -1.2468    0.1027 C   0  0  0  0  0  0  0  0  0  0  0  0
    4.6844   -0.8890    1.1001 C   0  0  0  0  0  0  0  0  0  0  0  0
    5.8002   -0.1088    0.7808 C   0  0  0  0  0  0  0  0  0  0  0  0
    6.0013    0.3203   -0.5343 C   0  0  0  0  0  0  0  0  0  0  0  0
    5.0857   -0.0290   -1.5312 C   0  0  0  0  0  0  0  0  0  0  0  0
    3.9692   -0.8095   -1.2150 C   0  0  0  0  0  0  0  0  0  0  0  0
    0.0303    0.9205    1.5913 C   0  0  0  0  0  0  0  0  0  0  0  0
   -0.8946    1.6488    0.7186 N   0  0  0  0  0  0  0  0  0  0  0  0
   -4.0404   -0.8130   -2.3153 H   0  0  0  0  0  0  0  0  0  0  0  0
   -6.1765   -1.1751   -0.5084 H   0  0  0  0  0  0  0  0  0  0  0  0
   -4.7669   -2.2877   -0.6905 H   0  0  0  0  0  0  0  0  0  0  0  0
   -5.2782   -0.1978    1.4372 H   0  0  0  0  0  0  0  0  0  0  0  0
   -4.4671   -1.8122    1.5824 H   0  0  0  0  0  0  0  0  0  0  0  0
   -3.1577    0.6803    1.4082 H   0  0  0  0  0  0  0  0  0  0  0  0
   -2.3982   -0.9210    0.9816 H   0  0  0  0  0  0  0  0  0  0  0  0
   -0.1593    1.8193   -1.2504 H   0  0  0  0  0  0  0  0  0  0  0  0
    0.7221   -0.3108   -1.4253 H   0  0  0  0  0  0  0  0  0  0  0  0
   -0.5795   -1.0763   -0.4278 H   0  0  0  0  0  0  0  0  0  0  0  0
    1.8388    0.5638    0.4765 H   0  0  0  0  0  0  0  0  0  0  0  0
    1.6401   -1.0299    2.3248 H   0  0  0  0  0  0  0  0  0  0  0  0
    4.5333   -1.2102    2.1229 H   0  0  0  0  0  0  0  0  0  0  0  0
    6.5073    0.1652    1.5531 H   0  0  0  0  0  0  0  0  0  0  0  0
    6.8645    0.9252   -0.7801 H   0  0  0  0  0  0  0  0  0  0  0  0
    5.2397    0.3072   -2.5484 H   0  0  0  0  0  0  0  0  0  0  0  0
    3.2641   -1.0653   -1.9951 H   0  0  0  0  0  0  0  0  0  0  0  0
    0.6637    1.6221    2.1798 H   0  0  0  0  0  0  0  0  0  0  0  0
   -0.5686    0.3162    2.3069 H   0  0  0  0  0  0  0  0  0  0  0  0
   -0.6236    2.6608    0.7054 H   0  0  0  0  0  0  0  0  0  0  0  0
  1  2  3  0
  2  3  1  0
  3  4  1  0
  4  5  1  0
  5  6  1  0
  6  7  1  0
  7  8  1  0
  8  9  2  0
  8 10  1  0
 10 11  1  0
 11 12  1  0
 12 13  1  0
 13 14  1  0
 14 15  2  0
 14 16  2  0
 14 17  1  0
 17 18  2  0
 18 19  1  0
 19 20  2  0
 20 21  1  0
 21 22  2  0
 12 23  1  0
 23 24  1  0
  7  3  1  0
 24 10  1  0
 22 17  1  0
  3 25  1  6
  4 26  1  0
  4 27  1  0
  5 28  1  0
  5 29  1  0
  6 30  1  0
  6 31  1  0
 10 32  1  6
 11 33  1  0
 11 34  1  0
 12 35  1  6
 13 36  1  0
 18 37  1  0
 19 38  1  0
 20 39  1  0
 21 40  1  0
 22 41  1  0
 23 42  1  0
 23 43  1  0
 24 44  1  0
M  END
$$$$
