
     RDKit          3D

 48 51  0  0  0  0  0  0  0  0999 V2000
   -3.0839    2.5015   -0.7031 N   0  0  0  0  0  0  0  0  0  0  0  0
   -1.8587    1.9105   -1.2541 C   0  0  1  0  0  0  0  0  0  0  0  0
   -0.5854    2.5975   -0.7521 C   0  0  0  0  0  0  0  0  0  0  0  0
    0.4015    1.5344   -0.6405 N   0  0  0  0  0  0  0  0  0  0  0  0
    1.8125    1.7926   -0.5380 C   0  0  0  0  0  0  0  0  0  0  0  0
    2.2771    2.8837   -0.9669 O   0  0  0  0  0  0  0  0  0  0  0  0
    2.7353    0.8082    0.0637 C   0  0  0  0  0  0  0  0  0  0  0  0
    2.3744    0.1141    1.2296 C   0  0  0  0  0  0  0  0  0  0  0  0
    3.2534   -0.8034    1.8104 C   0  0  0  0  0  0  0  0  0  0  0  0
    4.5138   -1.0308    1.2407 C   0  0  0  0  0  0  0  0  0  0  0  0
    5.4043   -1.9508    1.8159 C   0  0  0  0  0  0  0  0  0  0  0  0
    6.6604   -2.1644    1.2410 C   0  0  0  0  0  0  0  0  0  0  0  0
    7.0367   -1.4633    0.0922 C   0  0  0  0  0  0  0  0  0  0  0  0
    6.1594   -0.5438   -0.4900 C   0  0  0  0  0  0  0  0  0  0  0  0
    4.8945   -0.3204    0.0766 C   0  0  0  0  0  0  0  0  0  0  0  0
    4.0048    0.5995   -0.4991 C   0  0  0  0  0  0  0  0  0  0  0  0
   -0.1624    0.2170   -0.9063 C   0  0  0  0  0  0  0  0  0  0  0  0
   -1.6832    0.4163   -0.9142 C   0  0  1  0  0  0  0  0  0  0  0  0
   -2.2957    0.0443    0.4267 C   0  0  0  0  0  0  0  0  0  0  0  0
   -1.6752    0.3287    1.4888 O   0  0  0  0  0  0  0  0  0  0  0  0
   -3.6062   -0.5458    0.5163 N   0  0  0  0  0  0  0  0  0  0  0  0
   -4.4233   -0.9234   -0.6250 C   0  0  0  0  0  0  0  0  0  0  0  0
   -5.6806   -1.5558   -0.0425 C   0  0  0  0  0  0  0  0  0  0  0  0
   -5.7066   -1.1613    1.4316 C   0  0  0  0  0  0  0  0  0  0  0  0
   -4.2794   -0.7657    1.7845 C   0  0  0  0  0  0  0  0  0  0  0  0
   -2.9994    2.6043    0.3343 H   0  0  0  0  0  0  0  0  0  0  0  0
   -3.1806    3.4673   -1.0925 H   0  0  0  0  0  0  0  0  0  0  0  0
   -1.8892    2.0020   -2.3644 H   0  0  0  0  0  0  0  0  0  0  0  0
   -0.7287    3.0654    0.2456 H   0  0  0  0  0  0  0  0  0  0  0  0
   -0.2557    3.3691   -1.4816 H   0  0  0  0  0  0  0  0  0  0  0  0
    1.4171    0.2957    1.7024 H   0  0  0  0  0  0  0  0  0  0  0  0
    2.9506   -1.3292    2.7082 H   0  0  0  0  0  0  0  0  0  0  0  0
    5.1299   -2.5023    2.7073 H   0  0  0  0  0  0  0  0  0  0  0  0
    7.3443   -2.8748    1.6873 H   0  0  0  0  0  0  0  0  0  0  0  0
    8.0108   -1.6329   -0.3481 H   0  0  0  0  0  0  0  0  0  0  0  0
    6.4683   -0.0095   -1.3805 H   0  0  0  0  0  0  0  0  0  0  0  0
    4.2931    1.1439   -1.3915 H   0  0  0  0  0  0  0  0  0  0  0  0
    0.1548   -0.5294   -0.1493 H   0  0  0  0  0  0  0  0  0  0  0  0
    0.1827   -0.1287   -1.9053 H   0  0  0  0  0  0  0  0  0  0  0  0
   -2.1193   -0.2085   -1.7214 H   0  0  0  0  0  0  0  0  0  0  0  0
   -4.6807   -0.0189   -1.2177 H   0  0  0  0  0  0  0  0  0  0  0  0
   -3.8867   -1.6599   -1.2614 H   0  0  0  0  0  0  0  0  0  0  0  0
   -5.6164   -2.6630   -0.1280 H   0  0  0  0  0  0  0  0  0  0  0  0
   -6.5927   -1.2026   -0.5708 H   0  0  0  0  0  0  0  0  0  0  0  0
   -6.0632   -1.9998    2.0684 H   0  0  0  0  0  0  0  0  0  0  0  0
   -6.3807   -0.2872    1.5687 H   0  0  0  0  0  0  0  0  0  0  0  0
   -3.7709   -1.5842    2.3386 H   0  0  0  0  0  0  0  0  0  0  0  0
   -4.2747    0.1641    2.3943 H   0  0  0  0  0  0  0  0  0  0  0  0
  1  2  1  0
  2  3  1  0
  3  4  1  0
  4  5  1  0
  5  6  2  0
  5  7  1  0
  7  8  2  0
  8  9  1  0
  9 10  2  0
 10 11  1  0
 11 12  2  0
 12 13  1  0
 13 14  2  0
 14 15  1  0
 15 16  2  0
  4 17  1  0
 17 18  1  0
 18 19  1  0
 19 20  2  0
 19 21  1  0
 21 22  1  0
 22 23  1  0
 23 24  1  0
 24 25  1  0
 18  2  1  0
 25 21  1  0
 16  7  1  0
 15 10  1  0
  1 26  1  0
  1 27  1  0
  2 28  1  6
  3 29  1  0
  3 30  1  0
  8 31  1  0
  9 32  1  0
 11 33  1  0
 12 34  1  0
 13 35  1  0
 14 36  1  0
 16 37  1  0
 17 38  1  0
 17 39  1  0
 18 40  1  6
 22 41  1  0
 22 42  1  0
 23 43  1  0
 23 44  1  0
 24 45  1  0
 24 46  1  0
 25 47  1  0
 25 48  1  0
M  END
$$$$
