
     RDKit          3D

 51 53  0  0  0  0  0  0  0  0999 V2000
    9.0089    0.4024   -2.4170 C   0  0  0  0  0  0  0  0  0  0  0  0
    8.6699   -0.0307   -1.1037 O   0  0  0  0  0  0  0  0  0  0  0  0
    7.3639   -0.0610   -0.5924 C   0  0  0  0  0  0  0  0  0  0  0  0
    6.2476    0.3472   -1.3465 C   0  0  0  0  0  0  0  0  0  0  0  0
    4.9647    0.2959   -0.7925 C   0  0  0  0  0  0  0  0  0  0  0  0
    4.7739   -0.1769    0.5178 C   0  0  0  0  0  0  0  0  0  0  0  0
    3.4686   -0.2169    1.1199 N   0  0  0  0  0  0  0  0  0  0  0  0
    2.2586   -0.5067    0.4077 C   0  0  0  0  0  0  0  0  0  0  0  0
    2.2989   -0.9582   -0.7699 O   0  0  0  0  0  0  0  0  0  0  0  0
    1.0306   -0.3233    1.0518 O   0  0  0  0  0  0  0  0  0  0  0  0
   -0.2265   -0.5759    0.4233 C   0  0  2  0  0  0  0  0  0  0  0  0
   -0.5434    0.4720   -0.6486 C   0  0  0  0  0  0  0  0  0  0  0  0
   -1.9698    0.9526   -0.3911 C   0  0  0  0  0  0  0  0  0  0  0  0
   -2.5622    0.0017    0.6503 C   0  0  2  0  0  0  0  0  0  0  0  0
   -3.6383    0.6718    1.5488 C   0  0  2  0  0  0  0  0  0  0  0  0
   -4.2073   -0.2693    2.5185 N   0  0  0  0  0  0  0  0  0  0  0  0
   -4.7518    1.3220    0.7546 C   0  0  0  0  0  0  0  0  0  0  0  0
   -4.7698    2.5799    0.6656 O   0  0  0  0  0  0  0  0  0  0  0  0
   -5.8189    0.5659    0.1529 N   0  0  0  0  0  0  0  0  0  0  0  0
   -5.5982   -0.6325   -0.6445 C   0  0  0  0  0  0  0  0  0  0  0  0
   -6.8625   -0.9033   -1.4449 C   0  0  0  0  0  0  0  0  0  0  0  0
   -8.2661   -0.1929   -0.5424 S   0  0  0  0  0  0  0  0  0  0  0  0
   -7.1820    1.0747    0.1697 C   0  0  0  0  0  0  0  0  0  0  0  0
   -1.3534   -0.4869    1.4419 C   0  0  0  0  0  0  0  0  0  0  0  0
    5.8911   -0.5605    1.2733 C   0  0  0  0  0  0  0  0  0  0  0  0
    7.1731   -0.5102    0.7189 C   0  0  0  0  0  0  0  0  0  0  0  0
    8.5061   -0.2382   -3.1721 H   0  0  0  0  0  0  0  0  0  0  0  0
    8.7128    1.4635   -2.5574 H   0  0  0  0  0  0  0  0  0  0  0  0
   10.1064    0.3189   -2.5543 H   0  0  0  0  0  0  0  0  0  0  0  0
    6.3611    0.7141   -2.3575 H   0  0  0  0  0  0  0  0  0  0  0  0
    4.1292    0.6510   -1.3806 H   0  0  0  0  0  0  0  0  0  0  0  0
    3.3979   -0.1083    2.1569 H   0  0  0  0  0  0  0  0  0  0  0  0
   -0.2297   -1.5945   -0.0278 H   0  0  0  0  0  0  0  0  0  0  0  0
    0.1614    1.3309   -0.5932 H   0  0  0  0  0  0  0  0  0  0  0  0
   -0.4661    0.0159   -1.6598 H   0  0  0  0  0  0  0  0  0  0  0  0
   -1.9372    1.9930    0.0030 H   0  0  0  0  0  0  0  0  0  0  0  0
   -2.5710    0.9424   -1.3262 H   0  0  0  0  0  0  0  0  0  0  0  0
   -2.9919   -0.8772    0.1243 H   0  0  0  0  0  0  0  0  0  0  0  0
   -3.1384    1.4844    2.1257 H   0  0  0  0  0  0  0  0  0  0  0  0
   -4.4017   -1.1868    2.0589 H   0  0  0  0  0  0  0  0  0  0  0  0
   -3.5007   -0.4491    3.2684 H   0  0  0  0  0  0  0  0  0  0  0  0
   -4.7512   -0.4793   -1.3466 H   0  0  0  0  0  0  0  0  0  0  0  0
   -5.3875   -1.4951    0.0199 H   0  0  0  0  0  0  0  0  0  0  0  0
   -7.0124   -1.9936   -1.5933 H   0  0  0  0  0  0  0  0  0  0  0  0
   -6.7955   -0.4067   -2.4368 H   0  0  0  0  0  0  0  0  0  0  0  0
   -7.2482    2.0037   -0.4354 H   0  0  0  0  0  0  0  0  0  0  0  0
   -7.4995    1.2799    1.2137 H   0  0  0  0  0  0  0  0  0  0  0  0
   -1.5482   -1.4759    1.9112 H   0  0  0  0  0  0  0  0  0  0  0  0
   -1.0855    0.2480    2.2344 H   0  0  0  0  0  0  0  0  0  0  0  0
    5.7661   -0.9092    2.2908 H   0  0  0  0  0  0  0  0  0  0  0  0
    8.0239   -0.8203    1.3124 H   0  0  0  0  0  0  0  0  0  0  0  0
  1  2  1  0
  2  3  1  0
  3  4  2  0
  4  5  1  0
  5  6  2  0
  6  7  1  0
  7  8  1  0
  8  9  2  0
  8 10  1  0
 10 11  1  0
 11 12  1  0
 12 13  1  0
 13 14  1  0
 14 15  1  0
 15 16  1  0
 15 17  1  0
 17 18  2  0
 17 19  1  0
 19 20  1  0
 20 21  1  0
 21 22  1  0
 22 23  1  0
 14 24  1  0
  6 25  1  0
 25 26  2  0
 26  3  1  0
 24 11  1  0
 23 19  1  0
  1 27  1  0
  1 28  1  0
  1 29  1  0
  4 30  1  0
  5 31  1  0
  7 32  1  0
 11 33  1  6
 12 34  1  0
 12 35  1  0
 13 36  1  0
 13 37  1  0
 14 38  1  6
 15 39  1  1
 16 40  1  0
 16 41  1  0
 20 42  1  0
 20 43  1  0
 21 44  1  0
 21 45  1  0
 23 46  1  0
 23 47  1  0
 24 48  1  0
 24 49  1  0
 25 50  1  0
 26 51  1  0
M  END
$$$$
