
     RDKit          3D

 57 58  0  0  0  0  0  0  0  0999 V2000
   -3.3671   -3.0274   -1.0472 C   0  0  0  0  0  0  0  0  0  0  0  0
   -4.0309   -2.0094   -0.1110 C   0  0  0  0  0  0  0  0  0  0  0  0
   -5.4470   -2.4725    0.2511 C   0  0  0  0  0  0  0  0  0  0  0  0
   -3.1992   -1.7867    1.1740 C   0  0  0  0  0  0  0  0  0  0  0  0
   -1.8820   -1.1614    0.8898 N   0  0  0  0  0  0  0  0  0  0  0  0
   -1.7522    0.2069    0.7033 C   0  0  0  0  0  0  0  0  0  0  0  0
   -2.9638    1.1423    0.6648 C   0  0  0  0  0  0  0  0  0  0  0  0
   -3.0805    1.7707   -0.6488 N   0  0  0  0  0  0  0  0  0  0  0  0
   -0.4610    0.7774    0.5259 C   0  0  0  0  0  0  0  0  0  0  0  0
   -0.3018    2.2465    0.3815 C   0  0  0  0  0  0  0  0  0  0  0  0
   -0.2916    3.0701    1.5177 C   0  0  0  0  0  0  0  0  0  0  0  0
   -0.1246    4.4515    1.3810 C   0  0  0  0  0  0  0  0  0  0  0  0
    0.0398    5.0152    0.1121 C   0  0  0  0  0  0  0  0  0  0  0  0
    0.0399    4.1979   -1.0222 C   0  0  0  0  0  0  0  0  0  0  0  0
   -0.1271    2.8162   -0.8898 C   0  0  0  0  0  0  0  0  0  0  0  0
    0.6756   -0.0580    0.4906 C   0  0  0  0  0  0  0  0  0  0  0  0
    1.9796    0.4635    0.3183 C   0  0  0  0  0  0  0  0  0  0  0  0
    3.0946   -0.3834    0.2566 C   0  0  0  0  0  0  0  0  0  0  0  0
    4.4486    0.1861    0.0863 C   0  0  0  0  0  0  0  0  0  0  0  0
    4.7586    1.2191    0.7408 O   0  0  0  0  0  0  0  0  0  0  0  0
    5.4113   -0.4015   -0.8122 N   0  0  0  0  0  0  0  0  0  0  0  0
    6.8383   -0.1638   -0.5806 C   0  0  0  0  0  0  0  0  0  0  0  0
    4.9681   -1.0943   -2.0271 C   0  0  0  0  0  0  0  0  0  0  0  0
    2.9173   -1.7618    0.4070 C   0  0  0  0  0  0  0  0  0  0  0  0
    1.6414   -2.2915    0.5897 C   0  0  0  0  0  0  0  0  0  0  0  0
    0.5112   -1.4496    0.6333 C   0  0  0  0  0  0  0  0  0  0  0  0
   -0.7741   -1.9790    0.8367 C   0  0  0  0  0  0  0  0  0  0  0  0
   -0.9017   -3.2297    0.9731 O   0  0  0  0  0  0  0  0  0  0  0  0
    0.6878    0.0000    0.0000 Cl  0  0  0  0  0  0  0  0  0  0  0  0
   -2.3857   -2.6460   -1.3989 H   0  0  0  0  0  0  0  0  0  0  0  0
   -3.2173   -3.9991   -0.5294 H   0  0  0  0  0  0  0  0  0  0  0  0
   -4.0016   -3.1953   -1.9436 H   0  0  0  0  0  0  0  0  0  0  0  0
   -4.1252   -1.0549   -0.6655 H   0  0  0  0  0  0  0  0  0  0  0  0
   -5.4156   -3.4386    0.7996 H   0  0  0  0  0  0  0  0  0  0  0  0
   -6.0569   -2.6014   -0.6685 H   0  0  0  0  0  0  0  0  0  0  0  0
   -5.9465   -1.7128    0.8896 H   0  0  0  0  0  0  0  0  0  0  0  0
   -3.7572   -1.1841    1.9200 H   0  0  0  0  0  0  0  0  0  0  0  0
   -3.0845   -2.7602    1.6995 H   0  0  0  0  0  0  0  0  0  0  0  0
   -3.9283    0.6634    0.9086 H   0  0  0  0  0  0  0  0  0  0  0  0
   -2.8325    1.9313    1.4353 H   0  0  0  0  0  0  0  0  0  0  0  0
   -3.3107    1.0337   -1.3531 H   0  0  0  0  0  0  0  0  0  0  0  0
   -3.8930    2.4284   -0.6212 H   0  0  0  0  0  0  0  0  0  0  0  0
   -0.4133    2.6413    2.5048 H   0  0  0  0  0  0  0  0  0  0  0  0
   -0.1206    5.0849    2.2586 H   0  0  0  0  0  0  0  0  0  0  0  0
    0.1696    6.0846    0.0081 H   0  0  0  0  0  0  0  0  0  0  0  0
    0.1708    4.6350   -2.0036 H   0  0  0  0  0  0  0  0  0  0  0  0
   -0.1226    2.1898   -1.7733 H   0  0  0  0  0  0  0  0  0  0  0  0
    2.1433    1.5288    0.2176 H   0  0  0  0  0  0  0  0  0  0  0  0
    7.4678   -0.7198   -1.3070 H   0  0  0  0  0  0  0  0  0  0  0  0
    7.0604    0.9201   -0.6764 H   0  0  0  0  0  0  0  0  0  0  0  0
    7.1119   -0.5046    0.4403 H   0  0  0  0  0  0  0  0  0  0  0  0
    4.1589   -0.5144   -2.5199 H   0  0  0  0  0  0  0  0  0  0  0  0
    4.5959   -2.1078   -1.7776 H   0  0  0  0  0  0  0  0  0  0  0  0
    5.7979   -1.2027   -2.7570 H   0  0  0  0  0  0  0  0  0  0  0  0
    3.7700   -2.4291    0.4107 H   0  0  0  0  0  0  0  0  0  0  0  0
    1.5456   -3.3640    0.7077 H   0  0  0  0  0  0  0  0  0  0  0  0
   -0.6878    0.0000    0.0000 H   0  0  0  0  0  0  0  0  0  0  0  0
  1  2  1  0
  2  3  1  0
  2  4  1  0
  4  5  1  0
  5  6  1  0
  6  7  1  0
  7  8  1  0
  6  9  2  0
  9 10  1  0
 10 11  2  0
 11 12  1  0
 12 13  2  0
 13 14  1  0
 14 15  2  0
  9 16  1  0
 16 17  2  0
 17 18  1  0
 18 19  1  0
 19 20  2  0
 19 21  1  0
 21 22  1  0
 21 23  1  0
 18 24  2  0
 24 25  1  0
 25 26  2  0
 26 27  1  0
 27 28  2  0
 27  5  1  0
 15 10  1  0
 26 16  1  0
  1 30  1  0
  1 31  1  0
  1 32  1  0
  2 33  1  0
  3 34  1  0
  3 35  1  0
  3 36  1  0
  4 37  1  0
  4 38  1  0
  7 39  1  0
  7 40  1  0
  8 41  1  0
  8 42  1  0
 11 43  1  0
 12 44  1  0
 13 45  1  0
 14 46  1  0
 15 47  1  0
 17 48  1  0
 22 49  1  0
 22 50  1  0
 22 51  1  0
 23 52  1  0
 23 53  1  0
 23 54  1  0
 24 55  1  0
 25 56  1  0
 29 57  1  0
M  END
$$$$
