
     RDKit          3D

 41 43  0  0  0  0  0  0  0  0999 V2000
   -0.7164   -3.5744   -0.1006 C   0  0  0  0  0  0  0  0  0  0  0  0
   -0.2860   -2.2894    0.6247 C   0  0  1  0  0  0  0  0  0  0  0  0
    0.8450   -1.6097   -0.1002 C   0  0  0  0  0  0  0  0  0  0  0  0
    1.7331   -0.7946    0.4994 N   0  0  0  0  0  0  0  0  0  0  0  0
    2.5018   -0.4100   -0.5435 C   0  0  0  0  0  0  0  0  0  0  0  0
    3.6671    0.5032   -0.4061 C   0  0  0  0  0  0  0  0  0  0  0  0
    4.1466    0.7900    0.8875 C   0  0  0  0  0  0  0  0  0  0  0  0
    5.2432    1.6335    1.0750 C   0  0  0  0  0  0  0  0  0  0  0  0
    5.8798    2.2091   -0.0240 C   0  0  0  0  0  0  0  0  0  0  0  0
    7.2569    3.2693    0.2147 Cl  0  0  0  0  0  0  0  0  0  0  0  0
    5.4165    1.9441   -1.3139 C   0  0  0  0  0  0  0  0  0  0  0  0
    4.3169    1.0999   -1.5181 C   0  0  0  0  0  0  0  0  0  0  0  0
    3.7883    0.8674   -3.1825 Cl  0  0  0  0  0  0  0  0  0  0  0  0
    2.0959   -0.9685   -1.7016 N   0  0  0  0  0  0  0  0  0  0  0  0
    1.0694   -1.6973   -1.3880 O   0  0  0  0  0  0  0  0  0  0  0  0
   -1.4629   -1.3034    0.8735 C   0  0  2  0  0  0  0  0  0  0  0  0
   -2.4489   -1.9132    1.7727 N   0  0  0  0  0  0  0  0  0  0  0  0
   -2.1498   -0.8515   -0.4396 C   0  0  0  0  0  0  0  0  0  0  0  0
   -3.0168    0.3656   -0.2264 C   0  0  0  0  0  0  0  0  0  0  0  0
   -2.4224    1.6368   -0.1468 C   0  0  0  0  0  0  0  0  0  0  0  0
   -3.2081    2.7728    0.0700 C   0  0  0  0  0  0  0  0  0  0  0  0
   -2.6238    3.9944    0.1432 F   0  0  0  0  0  0  0  0  0  0  0  0
   -4.5931    2.6488    0.2134 C   0  0  0  0  0  0  0  0  0  0  0  0
   -5.3563    3.7496    0.4249 F   0  0  0  0  0  0  0  0  0  0  0  0
   -5.1927    1.3884    0.1421 C   0  0  0  0  0  0  0  0  0  0  0  0
   -4.4120    0.2482   -0.0747 C   0  0  0  0  0  0  0  0  0  0  0  0
   -5.0163   -0.9658   -0.1307 F   0  0  0  0  0  0  0  0  0  0  0  0
   -1.0601   -3.3588   -1.1341 H   0  0  0  0  0  0  0  0  0  0  0  0
    0.1406   -4.2792   -0.1579 H   0  0  0  0  0  0  0  0  0  0  0  0
   -1.5367   -4.0765    0.4541 H   0  0  0  0  0  0  0  0  0  0  0  0
    0.1145   -2.5977    1.6160 H   0  0  0  0  0  0  0  0  0  0  0  0
    3.6779    0.3541    1.7611 H   0  0  0  0  0  0  0  0  0  0  0  0
    5.5978    1.8377    2.0774 H   0  0  0  0  0  0  0  0  0  0  0  0
    5.9105    2.4013   -2.1625 H   0  0  0  0  0  0  0  0  0  0  0  0
   -1.0377   -0.4042    1.3786 H   0  0  0  0  0  0  0  0  0  0  0  0
   -1.9665   -2.1927    2.6577 H   0  0  0  0  0  0  0  0  0  0  0  0
   -3.1410   -1.1824    2.0552 H   0  0  0  0  0  0  0  0  0  0  0  0
   -2.7520   -1.6859   -0.8590 H   0  0  0  0  0  0  0  0  0  0  0  0
   -1.3876   -0.5980   -1.2065 H   0  0  0  0  0  0  0  0  0  0  0  0
   -1.3495    1.7449   -0.2513 H   0  0  0  0  0  0  0  0  0  0  0  0
   -6.2650    1.2942    0.2574 H   0  0  0  0  0  0  0  0  0  0  0  0
  1  2  1  0
  2  3  1  0
  3  4  2  0
  4  5  1  0
  5  6  1  0
  6  7  2  0
  7  8  1  0
  8  9  2  0
  9 10  1  0
  9 11  1  0
 11 12  2  0
 12 13  1  0
  5 14  2  0
 14 15  1  0
  2 16  1  0
 16 17  1  0
 16 18  1  0
 18 19  1  0
 19 20  2  0
 20 21  1  0
 21 22  1  0
 21 23  2  0
 23 24  1  0
 23 25  1  0
 25 26  2  0
 26 27  1  0
 15  3  1  0
 26 19  1  0
 12  6  1  0
  1 28  1  0
  1 29  1  0
  1 30  1  0
  2 31  1  1
  7 32  1  0
  8 33  1  0
 11 34  1  0
 16 35  1  1
 17 36  1  0
 17 37  1  0
 18 38  1  0
 18 39  1  0
 20 40  1  0
 25 41  1  0
M  END
$$$$
