
     RDKit          3D

 35 36  0  0  0  0  0  0  0  0999 V2000
   -3.8510   -1.0378    0.4273 N   0  0  0  0  0  0  0  0  0  0  0  0
   -2.8867   -0.4084    0.3132 C   0  0  0  0  0  0  0  0  0  0  0  0
   -1.6592    0.3908    0.1677 C   0  0  2  0  0  0  0  0  0  0  0  0
   -1.9811    1.8818    0.0772 C   0  0  0  0  0  0  0  0  0  0  0  0
   -1.9368    2.2231   -1.4085 C   0  0  0  0  0  0  0  0  0  0  0  0
   -1.0653    1.1522   -2.0508 C   0  0  0  0  0  0  0  0  0  0  0  0
   -0.9995    0.0622   -1.0898 N   0  0  0  0  0  0  0  0  0  0  0  0
   -0.2869   -1.1607   -1.3715 C   0  0  0  0  0  0  0  0  0  0  0  0
    0.1323   -1.3703   -2.5431 O   0  0  0  0  0  0  0  0  0  0  0  0
    0.0496   -2.1656   -0.2900 C   0  0  1  0  0  0  0  0  0  0  0  0
   -0.1789   -3.5228   -0.7937 N   0  0  0  0  0  0  0  0  0  0  0  0
    1.5118   -1.9969    0.1809 C   0  0  0  0  0  0  0  0  0  0  0  0
    1.7203   -0.6843    0.8970 C   0  0  0  0  0  0  0  0  0  0  0  0
    1.4185   -0.5811    2.2660 C   0  0  0  0  0  0  0  0  0  0  0  0
    1.5415    0.6451    2.9257 C   0  0  0  0  0  0  0  0  0  0  0  0
    1.9617    1.7781    2.2253 C   0  0  0  0  0  0  0  0  0  0  0  0
    2.2639    1.6865    0.8644 C   0  0  0  0  0  0  0  0  0  0  0  0
    2.1463    0.4623    0.1986 C   0  0  0  0  0  0  0  0  0  0  0  0
    2.4369    0.3997   -1.1256 F   0  0  0  0  0  0  0  0  0  0  0  0
   -0.9890    0.2105    1.0320 H   0  0  0  0  0  0  0  0  0  0  0  0
   -1.1869    2.4576    0.6028 H   0  0  0  0  0  0  0  0  0  0  0  0
   -2.9636    2.1485    0.5269 H   0  0  0  0  0  0  0  0  0  0  0  0
   -1.5225    3.2405   -1.5786 H   0  0  0  0  0  0  0  0  0  0  0  0
   -2.9647    2.1704   -1.8302 H   0  0  0  0  0  0  0  0  0  0  0  0
   -1.5159    0.8025   -3.0050 H   0  0  0  0  0  0  0  0  0  0  0  0
   -0.0425    1.5459   -2.2371 H   0  0  0  0  0  0  0  0  0  0  0  0
   -0.6202   -2.0242    0.5833 H   0  0  0  0  0  0  0  0  0  0  0  0
   -0.0827   -4.1957    0.0017 H   0  0  0  0  0  0  0  0  0  0  0  0
    0.5591   -3.7676   -1.4943 H   0  0  0  0  0  0  0  0  0  0  0  0
    1.7722   -2.8285    0.8720 H   0  0  0  0  0  0  0  0  0  0  0  0
    2.2054   -2.0802   -0.6845 H   0  0  0  0  0  0  0  0  0  0  0  0
    1.0732   -1.4469    2.8174 H   0  0  0  0  0  0  0  0  0  0  0  0
    1.3032    0.7184    3.9789 H   0  0  0  0  0  0  0  0  0  0  0  0
    2.0515    2.7277    2.7366 H   0  0  0  0  0  0  0  0  0  0  0  0
    2.5860    2.5674    0.3241 H   0  0  0  0  0  0  0  0  0  0  0  0
  1  2  3  0
  2  3  1  0
  3  4  1  0
  4  5  1  0
  5  6  1  0
  6  7  1  0
  7  8  1  0
  8  9  2  0
  8 10  1  0
 10 11  1  0
 10 12  1  0
 12 13  1  0
 13 14  2  0
 14 15  1  0
 15 16  2  0
 16 17  1  0
 17 18  2  0
 18 19  1  0
  7  3  1  0
 18 13  1  0
  3 20  1  1
  4 21  1  0
  4 22  1  0
  5 23  1  0
  5 24  1  0
  6 25  1  0
  6 26  1  0
 10 27  1  1
 11 28  1  0
 11 29  1  0
 12 30  1  0
 12 31  1  0
 14 32  1  0
 15 33  1  0
 16 34  1  0
 17 35  1  0
M  END
$$$$
