
     RDKit          3D

 77 78  0  0  0  0  0  0  0  0999 V2000
    8.8359    0.2260   -3.5815 C   0  0  0  0  0  0  0  0  0  0  0  0
    8.3946   -1.0303   -2.8485 C   0  0  0  0  0  0  0  0  0  0  0  0
    7.5644   -0.6721   -1.7496 O   0  0  0  0  0  0  0  0  0  0  0  0
    7.0148   -1.6175   -0.8776 C   0  0  0  0  0  0  0  0  0  0  0  0
    7.2401   -2.8474   -1.0480 O   0  0  0  0  0  0  0  0  0  0  0  0
    6.1761   -1.1689    0.2958 C   0  0  0  0  0  0  0  0  0  0  0  0
    5.2033   -0.1501   -0.1288 N   0  0  0  0  0  0  0  0  0  0  0  0
    4.0147    0.2095    0.6069 C   0  0  0  0  0  0  0  0  0  0  0  0
    3.5994   -0.4915    1.7571 C   0  0  0  0  0  0  0  0  0  0  0  0
    2.4384   -0.1125    2.4370 C   0  0  0  0  0  0  0  0  0  0  0  0
    1.6713    0.9702    1.9849 C   0  0  0  0  0  0  0  0  0  0  0  0
    0.4048    1.3474    2.7045 C   0  0  0  0  0  0  0  0  0  0  0  0
   -0.6155    0.3227    2.4981 N   0  0  0  0  0  0  0  0  0  0  0  0
   -1.2662    0.1300    1.2346 C   0  0  0  0  0  0  0  0  0  0  0  0
   -1.0270    0.9101    0.2723 O   0  0  0  0  0  0  0  0  0  0  0  0
   -2.1845   -1.0426    1.0366 C   0  0  0  0  0  0  0  0  0  0  0  0
   -1.2349   -2.4446    0.3820 S   0  0  0  0  0  0  0  0  0  0  0  0
   -1.7580   -2.0341   -1.3053 C   0  0  0  0  0  0  0  0  0  0  0  0
   -3.1176   -1.3568   -1.2296 C   0  0  0  0  0  0  0  0  0  0  0  0
   -3.2419   -0.7265    0.0797 N   0  0  0  0  0  0  0  0  0  0  0  0
   -4.3552    0.1166    0.4468 C   0  0  0  0  0  0  0  0  0  0  0  0
   -4.3269    0.7408    1.5426 O   0  0  0  0  0  0  0  0  0  0  0  0
   -5.5872    0.2438   -0.4131 C   0  0  0  0  0  0  0  0  0  0  0  0
   -6.7502   -0.5958    0.1529 C   0  0  2  0  0  0  0  0  0  0  0  0
   -6.3643   -2.0090    0.2058 N   0  0  0  0  0  0  0  0  0  0  0  0
   -8.0395   -0.4229   -0.6840 C   0  0  0  0  0  0  0  0  0  0  0  0
   -8.6077    0.9716   -0.5757 C   0  0  0  0  0  0  0  0  0  0  0  0
   -8.3881    1.9049   -1.6037 C   0  0  0  0  0  0  0  0  0  0  0  0
   -8.8930    3.2046   -1.4981 C   0  0  0  0  0  0  0  0  0  0  0  0
   -8.6744    4.0973   -2.4951 F   0  0  0  0  0  0  0  0  0  0  0  0
   -9.6191    3.5837   -0.3651 C   0  0  0  0  0  0  0  0  0  0  0  0
  -10.1086    4.8440   -0.2612 F   0  0  0  0  0  0  0  0  0  0  0  0
   -9.8395    2.6635    0.6635 C   0  0  0  0  0  0  0  0  0  0  0  0
   -9.3362    1.3623    0.5635 C   0  0  0  0  0  0  0  0  0  0  0  0
   -9.5594    0.4853    1.5750 F   0  0  0  0  0  0  0  0  0  0  0  0
    2.0758    1.6657    0.8368 C   0  0  0  0  0  0  0  0  0  0  0  0
    3.2364    1.2885    0.1563 C   0  0  0  0  0  0  0  0  0  0  0  0
    7.0444   -0.6433    1.4740 C   0  0  0  0  0  0  0  0  0  0  0  0
    7.8950    0.5801    1.0958 C   0  0  0  0  0  0  0  0  0  0  0  0
    7.9309   -1.7513    2.0603 C   0  0  0  0  0  0  0  0  0  0  0  0
    0.6878    0.0000    0.0000 Cl  0  0  0  0  0  0  0  0  0  0  0  0
    9.4855   -0.0485   -4.4391 H   0  0  0  0  0  0  0  0  0  0  0  0
    7.9482    0.7748   -3.9615 H   0  0  0  0  0  0  0  0  0  0  0  0
    9.4055    0.8858   -2.8931 H   0  0  0  0  0  0  0  0  0  0  0  0
    7.8308   -1.6856   -3.5473 H   0  0  0  0  0  0  0  0  0  0  0  0
    9.2914   -1.5740   -2.4796 H   0  0  0  0  0  0  0  0  0  0  0  0
    5.6146   -2.0654    0.6372 H   0  0  0  0  0  0  0  0  0  0  0  0
    5.4041    0.3918   -1.0005 H   0  0  0  0  0  0  0  0  0  0  0  0
    4.1578   -1.3322    2.1409 H   0  0  0  0  0  0  0  0  0  0  0  0
    2.1328   -0.6675    3.3157 H   0  0  0  0  0  0  0  0  0  0  0  0
    0.0202    2.3342    2.3658 H   0  0  0  0  0  0  0  0  0  0  0  0
    0.6216    1.4368    3.7912 H   0  0  0  0  0  0  0  0  0  0  0  0
   -0.8542   -0.3090    3.2956 H   0  0  0  0  0  0  0  0  0  0  0  0
   -2.6354   -1.3504    2.0046 H   0  0  0  0  0  0  0  0  0  0  0  0
   -1.0122   -1.3370   -1.7444 H   0  0  0  0  0  0  0  0  0  0  0  0
   -1.8069   -2.9528   -1.9270 H   0  0  0  0  0  0  0  0  0  0  0  0
   -3.9209   -2.1132   -1.3548 H   0  0  0  0  0  0  0  0  0  0  0  0
   -3.1925   -0.5940   -2.0343 H   0  0  0  0  0  0  0  0  0  0  0  0
   -5.8754    1.3164   -0.4300 H   0  0  0  0  0  0  0  0  0  0  0  0
   -5.3867   -0.0489   -1.4634 H   0  0  0  0  0  0  0  0  0  0  0  0
   -6.9547   -0.2537    1.1928 H   0  0  0  0  0  0  0  0  0  0  0  0
   -6.3233   -2.3943   -0.7662 H   0  0  0  0  0  0  0  0  0  0  0  0
   -7.1037   -2.5401    0.7209 H   0  0  0  0  0  0  0  0  0  0  0  0
   -7.8347   -0.6762   -1.7478 H   0  0  0  0  0  0  0  0  0  0  0  0
   -8.8075   -1.1459   -0.3322 H   0  0  0  0  0  0  0  0  0  0  0  0
   -7.8207    1.6271   -2.4835 H   0  0  0  0  0  0  0  0  0  0  0  0
  -10.4004    2.9594    1.5408 H   0  0  0  0  0  0  0  0  0  0  0  0
    1.4915    2.4979    0.4642 H   0  0  0  0  0  0  0  0  0  0  0  0
    3.5298    1.8407   -0.7277 H   0  0  0  0  0  0  0  0  0  0  0  0
    6.3594   -0.3199    2.2871 H   0  0  0  0  0  0  0  0  0  0  0  0
    8.6933    0.3061    0.3746 H   0  0  0  0  0  0  0  0  0  0  0  0
    8.3788    0.9979    2.0044 H   0  0  0  0  0  0  0  0  0  0  0  0
    7.2606    1.3757    0.6517 H   0  0  0  0  0  0  0  0  0  0  0  0
    8.4595   -1.3786    2.9636 H   0  0  0  0  0  0  0  0  0  0  0  0
    7.3095   -2.6220    2.3598 H   0  0  0  0  0  0  0  0  0  0  0  0
    8.6890   -2.0868    1.3210 H   0  0  0  0  0  0  0  0  0  0  0  0
   -0.6878    0.0000    0.0000 H   0  0  0  0  0  0  0  0  0  0  0  0
  1  2  1  0
  2  3  1  0
  3  4  1  0
  4  5  2  0
  4  6  1  0
  6  7  1  0
  7  8  1  0
  8  9  2  0
  9 10  1  0
 10 11  2  0
 11 12  1  0
 12 13  1  0
 13 14  1  0
 14 15  2  0
 14 16  1  0
 16 17  1  0
 17 18  1  0
 18 19  1  0
 19 20  1  0
 20 21  1  0
 21 22  2  0
 21 23  1  0
 23 24  1  0
 24 25  1  0
 24 26  1  0
 26 27  1  0
 27 28  2  0
 28 29  1  0
 29 30  1  0
 29 31  2  0
 31 32  1  0
 31 33  1  0
 33 34  2  0
 34 35  1  0
 11 36  1  0
 36 37  2  0
  6 38  1  0
 38 39  1  0
 38 40  1  0
 37  8  1  0
 20 16  1  0
 34 27  1  0
  1 42  1  0
  1 43  1  0
  1 44  1  0
  2 45  1  0
  2 46  1  0
  6 47  1  0
  7 48  1  0
  9 49  1  0
 10 50  1  0
 12 51  1  0
 12 52  1  0
 13 53  1  0
 16 54  1  0
 18 55  1  0
 18 56  1  0
 19 57  1  0
 19 58  1  0
 23 59  1  0
 23 60  1  0
 24 61  1  1
 25 62  1  0
 25 63  1  0
 26 64  1  0
 26 65  1  0
 28 66  1  0
 33 67  1  0
 36 68  1  0
 37 69  1  0
 38 70  1  0
 39 71  1  0
 39 72  1  0
 39 73  1  0
 40 74  1  0
 40 75  1  0
 40 76  1  0
 41 77  1  0
M  END
$$$$
