
     RDKit          3D

 43 45  0  0  0  0  0  0  0  0999 V2000
   -2.3647    4.0036    0.6443 C   0  0  0  0  0  0  0  0  0  0  0  0
   -1.0390    3.4660    0.3594 N   0  0  0  0  0  0  0  0  0  0  0  0
   -0.8009    2.0468    0.2965 C   0  0  0  0  0  0  0  0  0  0  0  0
   -1.8619    1.2067    0.3689 N   0  0  0  0  0  0  0  0  0  0  0  0
   -1.7664   -0.1455    0.2892 C   0  0  0  0  0  0  0  0  0  0  0  0
   -0.5044   -0.7419    0.0961 C   0  0  0  0  0  0  0  0  0  0  0  0
    0.6454    0.1033    0.0250 C   0  0  0  0  0  0  0  0  0  0  0  0
    2.0009   -0.4625   -0.1795 C   0  0  0  0  0  0  0  0  0  0  0  0
    2.5067   -0.5810   -1.4836 C   0  0  0  0  0  0  0  0  0  0  0  0
    3.7854   -1.1025   -1.6981 C   0  0  0  0  0  0  0  0  0  0  0  0
    4.2682   -1.2150   -2.9600 F   0  0  0  0  0  0  0  0  0  0  0  0
    4.5665   -1.5080   -0.6129 C   0  0  0  0  0  0  0  0  0  0  0  0
    4.0713   -1.3925    0.6888 C   0  0  0  0  0  0  0  0  0  0  0  0
    2.7919   -0.8709    0.9137 C   0  0  0  0  0  0  0  0  0  0  0  0
    2.1587   -0.7275    2.7178 Br  0  0  0  0  0  0  0  0  0  0  0  0
    0.4986    1.5119    0.1514 C   0  0  0  0  0  0  0  0  0  0  0  0
    1.7033    2.4383    0.1073 C   0  0  0  0  0  0  0  0  0  0  0  0
    1.7974    3.0767   -1.2015 N   0  0  0  0  0  0  0  0  0  0  0  0
   -0.4634   -2.1534   -0.0208 C   0  0  0  0  0  0  0  0  0  0  0  0
    0.6321   -2.7466   -0.2237 O   0  0  0  0  0  0  0  0  0  0  0  0
   -1.6136   -2.8914    0.0738 N   0  0  0  0  0  0  0  0  0  0  0  0
   -1.5569   -4.3575   -0.0802 C   0  0  0  0  0  0  0  0  0  0  0  0
   -2.8244   -2.2710    0.2297 C   0  0  0  0  0  0  0  0  0  0  0  0
   -3.8843   -2.9606    0.2323 O   0  0  0  0  0  0  0  0  0  0  0  0
   -2.8990   -0.9113    0.3754 N   0  0  0  0  0  0  0  0  0  0  0  0
   -4.2113   -0.2581    0.5450 C   0  0  0  0  0  0  0  0  0  0  0  0
   -3.0839    3.6666   -0.1318 H   0  0  0  0  0  0  0  0  0  0  0  0
   -2.3318    5.1136    0.6431 H   0  0  0  0  0  0  0  0  0  0  0  0
   -2.7047    3.6562    1.6426 H   0  0  0  0  0  0  0  0  0  0  0  0
   -0.2791    4.1544    0.1679 H   0  0  0  0  0  0  0  0  0  0  0  0
    1.9079   -0.2702   -2.3310 H   0  0  0  0  0  0  0  0  0  0  0  0
    5.5568   -1.9119   -0.7793 H   0  0  0  0  0  0  0  0  0  0  0  0
    4.6837   -1.7083    1.5236 H   0  0  0  0  0  0  0  0  0  0  0  0
    1.6109    3.2124    0.8987 H   0  0  0  0  0  0  0  0  0  0  0  0
    2.6552    1.9151    0.3361 H   0  0  0  0  0  0  0  0  0  0  0  0
    2.0677    2.3484   -1.9015 H   0  0  0  0  0  0  0  0  0  0  0  0
    2.5860    3.7625   -1.1660 H   0  0  0  0  0  0  0  0  0  0  0  0
   -0.6114   -4.7709    0.3316 H   0  0  0  0  0  0  0  0  0  0  0  0
   -2.3773   -4.8574    0.4778 H   0  0  0  0  0  0  0  0  0  0  0  0
   -1.6334   -4.6223   -1.1558 H   0  0  0  0  0  0  0  0  0  0  0  0
   -4.9622   -0.9452    0.9892 H   0  0  0  0  0  0  0  0  0  0  0  0
   -4.5816    0.0954   -0.4404 H   0  0  0  0  0  0  0  0  0  0  0  0
   -4.1391    0.6054    1.2407 H   0  0  0  0  0  0  0  0  0  0  0  0
  1  2  1  0
  2  3  1  0
  3  4  2  0
  4  5  1  0
  5  6  2  0
  6  7  1  0
  7  8  1  0
  8  9  2  0
  9 10  1  0
 10 11  1  0
 10 12  2  0
 12 13  1  0
 13 14  2  0
 14 15  1  0
  7 16  2  0
 16 17  1  0
 17 18  1  0
  6 19  1  0
 19 20  2  0
 19 21  1  0
 21 22  1  0
 21 23  1  0
 23 24  2  0
 23 25  1  0
 25 26  1  0
 16  3  1  0
 25  5  1  0
 14  8  1  0
  1 27  1  0
  1 28  1  0
  1 29  1  0
  2 30  1  0
  9 31  1  0
 12 32  1  0
 13 33  1  0
 17 34  1  0
 17 35  1  0
 18 36  1  0
 18 37  1  0
 22 38  1  0
 22 39  1  0
 22 40  1  0
 26 41  1  0
 26 42  1  0
 26 43  1  0
M  END
$$$$
