
     RDKit          3D

 54 57  0  0  0  0  0  0  0  0999 V2000
    0.9179    2.5684   -1.7008 C   0  0  0  0  0  0  0  0  0  0  0  0
    0.9859    1.8253   -0.3549 C   0  0  0  0  0  0  0  0  0  0  0  0
    2.4476    1.6179    0.0059 C   0  0  0  0  0  0  0  0  0  0  0  0
    3.2447    0.7180   -0.7212 C   0  0  0  0  0  0  0  0  0  0  0  0
    4.5900    0.5338   -0.3913 C   0  0  0  0  0  0  0  0  0  0  0  0
    5.1715    1.2524    0.6707 C   0  0  0  0  0  0  0  0  0  0  0  0
    6.5585    1.0750    1.0284 N   0  0  0  0  0  0  0  0  0  0  0  0
    7.5032    0.3645    0.3802 C   0  0  0  0  0  0  0  0  0  0  0  0
    8.6907    0.4359    1.0121 N   0  0  0  0  0  0  0  0  0  0  0  0
    8.4114    1.2243    2.0711 C   0  0  0  0  0  0  0  0  0  0  0  0
    7.1249    1.6191    2.0915 N   0  0  0  0  0  0  0  0  0  0  0  0
    4.3704    2.1549    1.3930 C   0  0  0  0  0  0  0  0  0  0  0  0
    3.0251    2.3382    1.0624 C   0  0  0  0  0  0  0  0  0  0  0  0
    0.2680    0.5264   -0.4284 N   0  0  0  0  0  0  0  0  0  0  0  0
    0.3700   -0.2488    0.8185 C   0  0  0  0  0  0  0  0  0  0  0  0
   -0.8463   -1.1627    0.8604 C   0  0  2  0  0  0  0  0  0  0  0  0
   -0.5984   -2.4067    0.1203 N   0  0  0  0  0  0  0  0  0  0  0  0
   -1.9316   -0.3035    0.2138 C   0  0  2  0  0  0  0  0  0  0  0  0
   -3.0197   -1.0861   -0.5013 C   0  0  0  0  0  0  0  0  0  0  0  0
   -2.7627   -1.6673   -1.5473 O   0  0  0  0  0  0  0  0  0  0  0  0
   -4.4284   -1.1494    0.0635 C   0  0  0  0  0  0  0  0  0  0  0  0
   -4.8742   -2.5984    0.2702 C   0  0  0  0  0  0  0  0  0  0  0  0
   -5.6716   -2.9959   -0.9706 C   0  0  0  0  0  0  0  0  0  0  0  0
   -5.9167   -1.7227   -1.7799 C   0  0  0  0  0  0  0  0  0  0  0  0
   -5.4443   -0.5512   -0.9179 C   0  0  1  0  0  0  0  0  0  0  0  0
   -6.5816    0.0445   -0.1908 C   0  0  0  0  0  0  0  0  0  0  0  0
   -7.4735    0.5116    0.3798 N   0  0  0  0  0  0  0  0  0  0  0  0
   -1.1768    0.6733   -0.6982 C   0  0  0  0  0  0  0  0  0  0  0  0
    1.5522    3.4806   -1.6687 H   0  0  0  0  0  0  0  0  0  0  0  0
    1.2697    1.9147   -2.5272 H   0  0  0  0  0  0  0  0  0  0  0  0
   -0.1189    2.8934   -1.9244 H   0  0  0  0  0  0  0  0  0  0  0  0
    0.5029    2.4734    0.4132 H   0  0  0  0  0  0  0  0  0  0  0  0
    2.8201    0.1513   -1.5406 H   0  0  0  0  0  0  0  0  0  0  0  0
    5.1631   -0.1781   -0.9669 H   0  0  0  0  0  0  0  0  0  0  0  0
    7.3528   -0.1888   -0.5357 H   0  0  0  0  0  0  0  0  0  0  0  0
    9.1398    1.5087    2.8183 H   0  0  0  0  0  0  0  0  0  0  0  0
    4.7867    2.7246    2.2138 H   0  0  0  0  0  0  0  0  0  0  0  0
    2.4346    3.0431    1.6343 H   0  0  0  0  0  0  0  0  0  0  0  0
    0.3475    0.4213    1.7094 H   0  0  0  0  0  0  0  0  0  0  0  0
    1.3142   -0.8350    0.8372 H   0  0  0  0  0  0  0  0  0  0  0  0
   -1.1193   -1.4100    1.9111 H   0  0  0  0  0  0  0  0  0  0  0  0
   -0.1819   -2.1881   -0.8148 H   0  0  0  0  0  0  0  0  0  0  0  0
    0.1063   -2.9706    0.6488 H   0  0  0  0  0  0  0  0  0  0  0  0
   -2.3947    0.2989    1.0282 H   0  0  0  0  0  0  0  0  0  0  0  0
   -4.4555   -0.6161    1.0409 H   0  0  0  0  0  0  0  0  0  0  0  0
   -5.5374   -2.6521    1.1622 H   0  0  0  0  0  0  0  0  0  0  0  0
   -4.0163   -3.2869    0.4390 H   0  0  0  0  0  0  0  0  0  0  0  0
   -6.6384   -3.4584   -0.6739 H   0  0  0  0  0  0  0  0  0  0  0  0
   -5.0982   -3.7306   -1.5775 H   0  0  0  0  0  0  0  0  0  0  0  0
   -6.9859   -1.6342   -2.0769 H   0  0  0  0  0  0  0  0  0  0  0  0
   -5.3091   -1.7576   -2.7111 H   0  0  0  0  0  0  0  0  0  0  0  0
   -4.9890    0.2437   -1.5499 H   0  0  0  0  0  0  0  0  0  0  0  0
   -1.5437    1.7050   -0.4939 H   0  0  0  0  0  0  0  0  0  0  0  0
   -1.3558    0.4569   -1.7732 H   0  0  0  0  0  0  0  0  0  0  0  0
  1  2  1  0
  2  3  1  0
  3  4  2  0
  4  5  1  0
  5  6  2  0
  6  7  1  0
  7  8  1  0
  8  9  2  0
  9 10  1  0
 10 11  2  0
  6 12  1  0
 12 13  2  0
  2 14  1  0
 14 15  1  0
 15 16  1  0
 16 17  1  0
 16 18  1  0
 18 19  1  0
 19 20  2  0
 19 21  1  0
 21 22  1  0
 22 23  1  0
 23 24  1  0
 24 25  1  0
 25 26  1  0
 26 27  3  0
 18 28  1  0
 13  3  1  0
 28 14  1  0
 11  7  1  0
 25 21  1  0
  1 29  1  0
  1 30  1  0
  1 31  1  0
  2 32  1  0
  4 33  1  0
  5 34  1  0
  8 35  1  0
 10 36  1  0
 12 37  1  0
 13 38  1  0
 15 39  1  0
 15 40  1  0
 16 41  1  1
 17 42  1  0
 17 43  1  0
 18 44  1  1
 21 45  1  0
 22 46  1  0
 22 47  1  0
 23 48  1  0
 23 49  1  0
 24 50  1  0
 24 51  1  0
 25 52  1  6
 28 53  1  0
 28 54  1  0
M  END
$$$$
