
     RDKit          3D

 48 49  0  0  0  0  0  0  0  0999 V2000
    1.2977    0.0794    2.4871 C   0  0  0  0  0  0  0  0  0  0  0  0
    0.2551   -0.2214    1.3887 C   0  0  0  0  0  0  0  0  0  0  0  0
   -0.9267   -0.9514    2.0662 C   0  0  0  0  0  0  0  0  0  0  0  0
    0.8874   -1.1676    0.3175 C   0  0  0  0  0  0  0  0  0  0  0  0
    1.9692   -0.5248   -0.5065 C   0  0  0  0  0  0  0  0  0  0  0  0
    1.6510    0.1417   -1.5284 O   0  0  0  0  0  0  0  0  0  0  0  0
    3.3444   -0.6354   -0.1040 N   0  0  0  0  0  0  0  0  0  0  0  0
    4.4519   -0.1426   -0.8764 C   0  0  0  0  0  0  0  0  0  0  0  0
    4.4657   -0.2307   -2.2811 C   0  0  0  0  0  0  0  0  0  0  0  0
    5.5672    0.2357   -3.0057 C   0  0  0  0  0  0  0  0  0  0  0  0
    6.6668    0.7800   -2.3372 C   0  0  0  0  0  0  0  0  0  0  0  0
    6.6708    0.8502   -0.9419 C   0  0  0  0  0  0  0  0  0  0  0  0
    5.5719    0.3840   -0.2137 C   0  0  0  0  0  0  0  0  0  0  0  0
   -0.1902    1.0814    0.8260 N   0  0  0  0  0  0  0  0  0  0  0  0
   -1.2819    1.0289   -0.1639 C   0  0  0  0  0  0  0  0  0  0  0  0
   -2.6102    1.2517    0.5096 C   0  0  0  0  0  0  0  0  0  0  0  0
   -2.6898    2.1352    1.4063 O   0  0  0  0  0  0  0  0  0  0  0  0
   -3.7967    0.5271    0.1248 N   0  0  0  0  0  0  0  0  0  0  0  0
   -5.0682    0.7127    0.8059 C   0  0  0  0  0  0  0  0  0  0  0  0
   -6.0772   -0.1342    0.0424 C   0  0  0  0  0  0  0  0  0  0  0  0
   -5.2520   -1.1188   -0.7799 C   0  0  0  0  0  0  0  0  0  0  0  0
   -3.8690   -0.4828   -0.9241 C   0  0  1  0  0  0  0  0  0  0  0  0
   -3.7127    0.1498   -2.2444 C   0  0  0  0  0  0  0  0  0  0  0  0
   -3.5886    0.6477   -3.2816 N   0  0  0  0  0  0  0  0  0  0  0  0
    1.6898   -0.8592    2.9354 H   0  0  0  0  0  0  0  0  0  0  0  0
    0.8417    0.6905    3.2959 H   0  0  0  0  0  0  0  0  0  0  0  0
    2.1525    0.6561    2.0750 H   0  0  0  0  0  0  0  0  0  0  0  0
   -1.4352   -0.2802    2.7914 H   0  0  0  0  0  0  0  0  0  0  0  0
   -0.5713   -1.8522    2.6121 H   0  0  0  0  0  0  0  0  0  0  0  0
   -1.6726   -1.2912    1.3184 H   0  0  0  0  0  0  0  0  0  0  0  0
    0.1125   -1.5692   -0.3681 H   0  0  0  0  0  0  0  0  0  0  0  0
    1.3125   -2.0629    0.8224 H   0  0  0  0  0  0  0  0  0  0  0  0
    3.5459   -1.0139    0.8491 H   0  0  0  0  0  0  0  0  0  0  0  0
    3.6418   -0.6824   -2.8170 H   0  0  0  0  0  0  0  0  0  0  0  0
    5.5722    0.1665   -4.0858 H   0  0  0  0  0  0  0  0  0  0  0  0
    7.5190    1.1389   -2.8997 H   0  0  0  0  0  0  0  0  0  0  0  0
    7.5264    1.2640   -0.4240 H   0  0  0  0  0  0  0  0  0  0  0  0
    5.5870    0.4423    0.8675 H   0  0  0  0  0  0  0  0  0  0  0  0
    0.6242    1.5879    0.4066 H   0  0  0  0  0  0  0  0  0  0  0  0
   -1.1490    1.8507   -0.9013 H   0  0  0  0  0  0  0  0  0  0  0  0
   -1.2635    0.0918   -0.7454 H   0  0  0  0  0  0  0  0  0  0  0  0
   -5.3664    1.7836    0.7881 H   0  0  0  0  0  0  0  0  0  0  0  0
   -4.9817    0.3614    1.8571 H   0  0  0  0  0  0  0  0  0  0  0  0
   -6.6667    0.5148   -0.6421 H   0  0  0  0  0  0  0  0  0  0  0  0
   -6.7698   -0.6624    0.7330 H   0  0  0  0  0  0  0  0  0  0  0  0
   -5.1581   -2.0715   -0.2129 H   0  0  0  0  0  0  0  0  0  0  0  0
   -5.7394   -1.3399   -1.7559 H   0  0  0  0  0  0  0  0  0  0  0  0
   -3.0878   -1.2594   -0.7813 H   0  0  0  0  0  0  0  0  0  0  0  0
  1  2  1  0
  2  3  1  0
  2  4  1  0
  4  5  1  0
  5  6  2  0
  5  7  1  0
  7  8  1  0
  8  9  2  0
  9 10  1  0
 10 11  2  0
 11 12  1  0
 12 13  2  0
  2 14  1  0
 14 15  1  0
 15 16  1  0
 16 17  2  0
 16 18  1  0
 18 19  1  0
 19 20  1  0
 20 21  1  0
 21 22  1  0
 22 23  1  0
 23 24  3  0
 13  8  1  0
 22 18  1  0
  1 25  1  0
  1 26  1  0
  1 27  1  0
  3 28  1  0
  3 29  1  0
  3 30  1  0
  4 31  1  0
  4 32  1  0
  7 33  1  0
  9 34  1  0
 10 35  1  0
 11 36  1  0
 12 37  1  0
 13 38  1  0
 14 39  1  0
 15 40  1  0
 15 41  1  0
 19 42  1  0
 19 43  1  0
 20 44  1  0
 20 45  1  0
 21 46  1  0
 21 47  1  0
 22 48  1  1
M  END
$$$$
