
     RDKit          3D

 64 64  0  0  0  0  0  0  0  0999 V2000
    2.4359    4.5617    1.3150 C   0  0  0  0  0  0  0  0  0  0  0  0
    1.5978    3.3994    0.8718 C   0  0  0  0  0  0  0  0  0  0  0  0
    1.4169    2.2875    1.7095 C   0  0  0  0  0  0  0  0  0  0  0  0
    0.6633    1.1937    1.2748 C   0  0  0  0  0  0  0  0  0  0  0  0
    0.0965    1.1923   -0.0077 C   0  0  0  0  0  0  0  0  0  0  0  0
   -0.6713    0.0177   -0.4858 C   0  0  0  0  0  0  0  0  0  0  0  0
   -0.0201   -0.9942   -1.2398 C   0  0  0  0  0  0  0  0  0  0  0  0
    1.4757   -0.9202   -1.5096 C   0  0  0  0  0  0  0  0  0  0  0  0
    2.2754   -1.5597   -0.3670 C   0  0  0  0  0  0  0  0  0  0  0  0
    3.6993   -1.1094   -0.4099 C   0  0  0  0  0  0  0  0  0  0  0  0
    4.1410    0.0064    0.2088 N   0  0  0  0  0  0  0  0  0  0  0  0
    5.4548    0.2476   -0.0502 C   0  0  0  0  0  0  0  0  0  0  0  0
    6.1583    1.4106    0.5192 C   0  0  0  0  0  0  0  0  0  0  0  0
    5.4835    2.3113    1.3993 N   0  0  0  0  0  0  0  0  0  0  0  0
    7.3674    1.6185    0.2306 O   0  0  0  0  0  0  0  0  0  0  0  0
    6.0644   -0.6771   -0.8984 C   0  0  0  0  0  0  0  0  0  0  0  0
    4.9109   -1.8233   -1.3297 S   0  0  0  0  0  0  0  0  0  0  0  0
   -0.7829   -2.0948   -1.6890 C   0  0  0  0  0  0  0  0  0  0  0  0
   -0.1877   -3.2165   -2.4912 C   0  0  0  0  0  0  0  0  0  0  0  0
   -2.1114   -2.1440   -1.4247 N   0  0  0  0  0  0  0  0  0  0  0  0
   -2.7726   -1.1913   -0.7206 C   0  0  0  0  0  0  0  0  0  0  0  0
   -4.2521   -1.4006   -0.4987 C   0  0  0  0  0  0  0  0  0  0  0  0
   -4.5456   -2.0787    0.8586 C   0  0  0  0  0  0  0  0  0  0  0  0
   -6.0483   -2.0289    1.1593 C   0  0  0  0  0  0  0  0  0  0  0  0
   -4.0533   -3.5335    0.8813 C   0  0  0  0  0  0  0  0  0  0  0  0
   -2.0591   -0.0804   -0.2069 C   0  0  0  0  0  0  0  0  0  0  0  0
   -2.7657    1.0335    0.5496 C   0  0  0  0  0  0  0  0  0  0  0  0
   -3.0581    2.1414   -0.3538 N   0  0  0  0  0  0  0  0  0  0  0  0
    0.2775    2.3015   -0.8461 C   0  0  0  0  0  0  0  0  0  0  0  0
    1.0294    3.3963   -0.4108 C   0  0  0  0  0  0  0  0  0  0  0  0
    0.6878    0.0000    0.0000 Cl  0  0  0  0  0  0  0  0  0  0  0  0
    0.6878    0.0000    0.0000 Cl  0  0  0  0  0  0  0  0  0  0  0  0
    2.5850    4.5536    2.4157 H   0  0  0  0  0  0  0  0  0  0  0  0
    1.9394    5.5164    1.0402 H   0  0  0  0  0  0  0  0  0  0  0  0
    3.4274    4.5131    0.8182 H   0  0  0  0  0  0  0  0  0  0  0  0
    1.8599    2.2653    2.6974 H   0  0  0  0  0  0  0  0  0  0  0  0
    0.5258    0.3456    1.9340 H   0  0  0  0  0  0  0  0  0  0  0  0
    1.7391   -1.4185   -2.4656 H   0  0  0  0  0  0  0  0  0  0  0  0
    1.7862    0.1365   -1.6503 H   0  0  0  0  0  0  0  0  0  0  0  0
    1.8469   -1.2790    0.6175 H   0  0  0  0  0  0  0  0  0  0  0  0
    2.2351   -2.6662   -0.4461 H   0  0  0  0  0  0  0  0  0  0  0  0
    5.9857    3.1400    1.7883 H   0  0  0  0  0  0  0  0  0  0  0  0
    4.4884    2.1564    1.6731 H   0  0  0  0  0  0  0  0  0  0  0  0
    7.0936   -0.6600   -1.2317 H   0  0  0  0  0  0  0  0  0  0  0  0
   -0.9367   -4.0220   -2.6479 H   0  0  0  0  0  0  0  0  0  0  0  0
    0.6792   -3.6581   -1.9595 H   0  0  0  0  0  0  0  0  0  0  0  0
    0.1302   -2.8419   -3.4865 H   0  0  0  0  0  0  0  0  0  0  0  0
   -4.7882   -0.4319   -0.5802 H   0  0  0  0  0  0  0  0  0  0  0  0
   -4.6595   -2.0316   -1.3198 H   0  0  0  0  0  0  0  0  0  0  0  0
   -4.0213   -1.5282    1.6698 H   0  0  0  0  0  0  0  0  0  0  0  0
   -6.3967   -0.9746    1.1967 H   0  0  0  0  0  0  0  0  0  0  0  0
   -6.2592   -2.4941    2.1460 H   0  0  0  0  0  0  0  0  0  0  0  0
   -6.6226   -2.5699    0.3765 H   0  0  0  0  0  0  0  0  0  0  0  0
   -4.5240   -4.1210    0.0640 H   0  0  0  0  0  0  0  0  0  0  0  0
   -4.3049   -4.0087    1.8535 H   0  0  0  0  0  0  0  0  0  0  0  0
   -2.9500   -3.5721    0.7649 H   0  0  0  0  0  0  0  0  0  0  0  0
   -3.6991    0.6915    1.0400 H   0  0  0  0  0  0  0  0  0  0  0  0
   -2.1258    1.3969    1.3809 H   0  0  0  0  0  0  0  0  0  0  0  0
   -3.7971    1.8309   -1.0255 H   0  0  0  0  0  0  0  0  0  0  0  0
   -3.4757    2.9146    0.2130 H   0  0  0  0  0  0  0  0  0  0  0  0
   -0.1531    2.3105   -1.8399 H   0  0  0  0  0  0  0  0  0  0  0  0
    1.1722    4.2401   -1.0746 H   0  0  0  0  0  0  0  0  0  0  0  0
   -0.6878    0.0000    0.0000 H   0  0  0  0  0  0  0  0  0  0  0  0
   -0.6878    0.0000    0.0000 H   0  0  0  0  0  0  0  0  0  0  0  0
  1  2  1  0
  2  3  2  0
  3  4  1  0
  4  5  2  0
  5  6  1  0
  6  7  1  0
  7  8  1  0
  8  9  1  0
  9 10  1  0
 10 11  2  0
 11 12  1  0
 12 13  1  0
 13 14  1  0
 13 15  2  0
 12 16  2  0
 16 17  1  0
  7 18  2  0
 18 19  1  0
 18 20  1  0
 20 21  2  0
 21 22  1  0
 22 23  1  0
 23 24  1  0
 23 25  1  0
 21 26  1  0
 26 27  1  0
 27 28  1  0
  5 29  1  0
 29 30  2  0
 30  2  1  0
 26  6  2  0
 17 10  1  0
  1 33  1  0
  1 34  1  0
  1 35  1  0
  3 36  1  0
  4 37  1  0
  8 38  1  0
  8 39  1  0
  9 40  1  0
  9 41  1  0
 14 42  1  0
 14 43  1  0
 16 44  1  0
 19 45  1  0
 19 46  1  0
 19 47  1  0
 22 48  1  0
 22 49  1  0
 23 50  1  0
 24 51  1  0
 24 52  1  0
 24 53  1  0
 25 54  1  0
 25 55  1  0
 25 56  1  0
 27 57  1  0
 27 58  1  0
 28 59  1  0
 28 60  1  0
 29 61  1  0
 30 62  1  0
 31 63  1  0
 32 64  1  0
M  END
$$$$
