
     RDKit          3D

 35 36  0  0  0  0  0  0  0  0999 V2000
    0.5143   -1.4621   -2.0948 N   0  0  0  0  0  0  0  0  0  0  0  0
   -0.1510   -0.2017   -1.7483 C   0  0  2  0  0  0  0  0  0  0  0  0
    0.8032    0.7770   -1.0816 C   0  0  0  0  0  0  0  0  0  0  0  0
    0.7457    1.9852   -1.4406 O   0  0  0  0  0  0  0  0  0  0  0  0
    1.7152    0.4167   -0.0216 N   0  0  0  0  0  0  0  0  0  0  0  0
    2.2745   -0.9057    0.2141 C   0  0  0  0  0  0  0  0  0  0  0  0
    3.3607   -0.7149    1.2646 C   0  0  0  0  0  0  0  0  0  0  0  0
    3.0860    0.6414    1.9026 C   0  0  0  0  0  0  0  0  0  0  0  0
    2.2633    1.4140    0.8828 C   0  0  0  0  0  0  0  0  0  0  0  0
   -1.4782   -0.4374   -0.9668 C   0  0  1  0  0  0  0  0  0  0  0  0
   -1.3342   -0.8712    0.4895 C   0  0  0  0  0  0  0  0  0  0  0  0
   -2.6763   -0.5465    1.1330 C   0  0  0  0  0  0  0  0  0  0  0  0
   -3.3262    0.5428    0.2716 C   0  0  1  0  0  0  0  0  0  0  0  0
   -3.5125    1.7135    1.0236 O   0  0  0  0  0  0  0  0  0  0  0  0
   -2.3768    0.7939   -0.9031 C   0  0  0  0  0  0  0  0  0  0  0  0
    0.0466   -1.8634   -2.9405 H   0  0  0  0  0  0  0  0  0  0  0  0
    0.3771   -2.1657   -1.3353 H   0  0  0  0  0  0  0  0  0  0  0  0
   -0.4482    0.2740   -2.7126 H   0  0  0  0  0  0  0  0  0  0  0  0
    1.4915   -1.5866    0.6069 H   0  0  0  0  0  0  0  0  0  0  0  0
    2.7203   -1.3143   -0.7179 H   0  0  0  0  0  0  0  0  0  0  0  0
    4.3582   -0.6963    0.7724 H   0  0  0  0  0  0  0  0  0  0  0  0
    3.3426   -1.5291    2.0214 H   0  0  0  0  0  0  0  0  0  0  0  0
    2.4904    0.4995    2.8314 H   0  0  0  0  0  0  0  0  0  0  0  0
    4.0305    1.1728    2.1502 H   0  0  0  0  0  0  0  0  0  0  0  0
    2.9107    2.1179    0.3158 H   0  0  0  0  0  0  0  0  0  0  0  0
    1.4440    1.9735    1.3848 H   0  0  0  0  0  0  0  0  0  0  0  0
   -2.0487   -1.2325   -1.5011 H   0  0  0  0  0  0  0  0  0  0  0  0
   -1.1004   -1.9543    0.5746 H   0  0  0  0  0  0  0  0  0  0  0  0
   -0.5522   -0.2807    1.0089 H   0  0  0  0  0  0  0  0  0  0  0  0
   -3.3174   -1.4558    1.1330 H   0  0  0  0  0  0  0  0  0  0  0  0
   -2.5353   -0.2172    2.1863 H   0  0  0  0  0  0  0  0  0  0  0  0
   -4.3072    0.1708   -0.1074 H   0  0  0  0  0  0  0  0  0  0  0  0
   -4.0969    2.3060    0.4822 H   0  0  0  0  0  0  0  0  0  0  0  0
   -2.9395    0.9290   -1.8525 H   0  0  0  0  0  0  0  0  0  0  0  0
   -1.7738    1.7075   -0.7093 H   0  0  0  0  0  0  0  0  0  0  0  0
  1  2  1  0
  2  3  1  0
  3  4  2  0
  3  5  1  0
  5  6  1  0
  6  7  1  0
  7  8  1  0
  8  9  1  0
  2 10  1  0
 10 11  1  0
 11 12  1  0
 12 13  1  0
 13 14  1  0
 13 15  1  0
  9  5  1  0
 15 10  1  0
  1 16  1  0
  1 17  1  0
  2 18  1  6
  6 19  1  0
  6 20  1  0
  7 21  1  0
  7 22  1  0
  8 23  1  0
  8 24  1  0
  9 25  1  0
  9 26  1  0
 10 27  1  6
 11 28  1  0
 11 29  1  0
 12 30  1  0
 12 31  1  0
 13 32  1  6
 14 33  1  0
 15 34  1  0
 15 35  1  0
M  END
$$$$
