
     RDKit          3D

 49 50  0  0  0  0  0  0  0  0999 V2000
   -1.5409   -2.3372    0.6514 N   0  0  0  0  0  0  0  0  0  0  0  0
   -0.8514   -1.0456    0.5852 C   0  0  1  0  0  0  0  0  0  0  0  0
    0.6250   -1.2652    0.2070 C   0  0  0  0  0  0  0  0  0  0  0  0
    1.3351    0.0138    0.0567 N   0  0  0  0  0  0  0  0  0  0  0  0
    2.7409    0.0721    0.3405 C   0  0  0  0  0  0  0  0  0  0  0  0
    3.1478    0.6759    1.4917 N   0  0  0  0  0  0  0  0  0  0  0  0
    4.4547    0.7488    1.8505 C   0  0  0  0  0  0  0  0  0  0  0  0
    5.4325    0.1845    1.0360 C   0  0  0  0  0  0  0  0  0  0  0  0
    5.0562   -0.4326   -0.1562 C   0  0  0  0  0  0  0  0  0  0  0  0
    3.7045   -0.4749   -0.5435 C   0  0  0  0  0  0  0  0  0  0  0  0
    3.3226   -1.1367   -1.8501 C   0  0  0  0  0  0  0  0  0  0  0  0
    2.9871   -2.4567   -1.6145 F   0  0  0  0  0  0  0  0  0  0  0  0
    4.3773   -1.1028   -2.7464 F   0  0  0  0  0  0  0  0  0  0  0  0
    2.2518   -0.4876   -2.4384 F   0  0  0  0  0  0  0  0  0  0  0  0
    0.5857    1.2706   -0.0289 C   0  0  0  0  0  0  0  0  0  0  0  0
   -0.6593    1.0822   -0.9003 C   0  0  0  0  0  0  0  0  0  0  0  0
   -1.5469   -0.1143   -0.4482 C   0  0  2  0  0  0  0  0  0  0  0  0
   -2.8941    0.3666    0.0740 C   0  0  0  0  0  0  0  0  0  0  0  0
   -2.9592    1.2392    1.1784 C   0  0  0  0  0  0  0  0  0  0  0  0
   -4.1932    1.6749    1.6693 C   0  0  0  0  0  0  0  0  0  0  0  0
   -4.2384    2.5164    2.7317 F   0  0  0  0  0  0  0  0  0  0  0  0
   -5.3775    1.2438    1.0673 C   0  0  0  0  0  0  0  0  0  0  0  0
   -6.5753    1.6653    1.5432 F   0  0  0  0  0  0  0  0  0  0  0  0
   -5.3287    0.3757   -0.0255 C   0  0  0  0  0  0  0  0  0  0  0  0
   -4.0977   -0.0646   -0.5229 C   0  0  0  0  0  0  0  0  0  0  0  0
   -4.0870   -0.9135   -1.5818 F   0  0  0  0  0  0  0  0  0  0  0  0
    0.7427    0.0040   -1.5514 O   0  0  0  0  0  0  0  0  0  0  0  0
    0.4685    0.0082   -0.3214 C   0  0  0  0  0  0  0  0  0  0  0  0
    1.4928   -0.0686    0.6175 O   0  0  0  0  0  0  0  0  0  0  0  0
   -0.9568    0.0357    0.1269 C   0  0  0  0  0  0  0  0  0  0  0  0
   -1.4720   -1.2463    0.0955 F   0  0  0  0  0  0  0  0  0  0  0  0
   -1.7004    0.8471   -0.7108 F   0  0  0  0  0  0  0  0  0  0  0  0
   -1.0372    0.5270    1.4171 F   0  0  0  0  0  0  0  0  0  0  0  0
   -1.0650   -2.9305    1.3697 H   0  0  0  0  0  0  0  0  0  0  0  0
   -2.5090   -2.1794    1.0139 H   0  0  0  0  0  0  0  0  0  0  0  0
   -0.8729   -0.5738    1.5945 H   0  0  0  0  0  0  0  0  0  0  0  0
    0.6795   -1.8318   -0.7457 H   0  0  0  0  0  0  0  0  0  0  0  0
    1.1115   -1.8718    1.0029 H   0  0  0  0  0  0  0  0  0  0  0  0
    4.7326    1.2359    2.7756 H   0  0  0  0  0  0  0  0  0  0  0  0
    6.4747    0.2265    1.3249 H   0  0  0  0  0  0  0  0  0  0  0  0
    5.8261   -0.8709   -0.7786 H   0  0  0  0  0  0  0  0  0  0  0  0
    1.2217    2.0635   -0.4807 H   0  0  0  0  0  0  0  0  0  0  0  0
    0.2949    1.6005    0.9911 H   0  0  0  0  0  0  0  0  0  0  0  0
   -0.3174    0.9029   -1.9441 H   0  0  0  0  0  0  0  0  0  0  0  0
   -1.2336    2.0344   -0.9219 H   0  0  0  0  0  0  0  0  0  0  0  0
   -1.7131   -0.7288   -1.3614 H   0  0  0  0  0  0  0  0  0  0  0  0
   -2.0536    1.5842    1.6593 H   0  0  0  0  0  0  0  0  0  0  0  0
   -6.2482    0.0410   -0.4886 H   0  0  0  0  0  0  0  0  0  0  0  0
    2.4624   -0.1071    0.3267 H   0  0  0  0  0  0  0  0  0  0  0  0
  1  2  1  0
  2  3  1  0
  3  4  1  0
  4  5  1  0
  5  6  2  0
  6  7  1  0
  7  8  2  0
  8  9  1  0
  9 10  2  0
 10 11  1  0
 11 12  1  0
 11 13  1  0
 11 14  1  0
  4 15  1  0
 15 16  1  0
 16 17  1  0
 17 18  1  0
 18 19  2  0
 19 20  1  0
 20 21  1  0
 20 22  2  0
 22 23  1  0
 22 24  1  0
 24 25  2  0
 25 26  1  0
 27 28  2  0
 28 29  1  0
 28 30  1  0
 30 31  1  0
 30 32  1  0
 30 33  1  0
 17  2  1  0
 25 18  1  0
 10  5  1  0
  1 34  1  0
  1 35  1  0
  2 36  1  1
  3 37  1  0
  3 38  1  0
  7 39  1  0
  8 40  1  0
  9 41  1  0
 15 42  1  0
 15 43  1  0
 16 44  1  0
 16 45  1  0
 17 46  1  6
 19 47  1  0
 24 48  1  0
 29 49  1  0
M  END
$$$$
