
     RDKit          3D

 45 48  0  0  0  0  0  0  0  0999 V2000
    5.5595    1.4064   -1.1186 C   0  0  0  0  0  0  0  0  0  0  0  0
    5.0556    0.8564    0.1827 C   0  0  0  0  0  0  0  0  0  0  0  0
    5.9312    0.6747    1.2608 C   0  0  0  0  0  0  0  0  0  0  0  0
    5.4333    0.2085    2.4785 C   0  0  0  0  0  0  0  0  0  0  0  0
    4.1087   -0.0632    2.6149 N   0  0  0  0  0  0  0  0  0  0  0  0
    3.2289    0.0973    1.5888 C   0  0  0  0  0  0  0  0  0  0  0  0
    1.8379   -0.1781    1.8129 N   0  0  0  0  0  0  0  0  0  0  0  0
    0.8991   -0.4868    0.7709 C   0  0  0  0  0  0  0  0  0  0  0  0
   -0.3939    0.0600    0.7958 C   0  0  0  0  0  0  0  0  0  0  0  0
   -1.3058   -0.2710   -0.2384 C   0  0  0  0  0  0  0  0  0  0  0  0
   -2.6347    0.2885   -0.2687 N   0  0  0  0  0  0  0  0  0  0  0  0
   -3.2744    0.5202   -1.5726 C   0  0  0  0  0  0  0  0  0  0  0  0
   -4.5032    1.4237   -1.4392 C   0  0  0  0  0  0  0  0  0  0  0  0
   -5.5020    0.8651   -0.4159 C   0  0  0  0  0  0  0  0  0  0  0  0
   -4.8378    0.3187    0.8761 C   0  0  1  0  0  0  0  0  0  0  0  0
   -5.0468   -1.1298    0.9726 N   0  0  0  0  0  0  0  0  0  0  0  0
   -3.3350    0.6636    0.9706 C   0  0  0  0  0  0  0  0  0  0  0  0
   -0.9121   -1.1180   -1.2377 N   0  0  0  0  0  0  0  0  0  0  0  0
    0.3380   -1.6373   -1.2132 C   0  0  0  0  0  0  0  0  0  0  0  0
    0.8978   -2.5357   -2.0871 C   0  0  0  0  0  0  0  0  0  0  0  0
    2.1622   -2.7530   -1.5467 C   0  0  0  0  0  0  0  0  0  0  0  0
    2.3262   -2.0196   -0.4193 N   0  0  0  0  0  0  0  0  0  0  0  0
    1.2056   -1.3405   -0.2420 N   0  0  0  0  0  0  0  0  0  0  0  0
    3.6908    0.5890    0.3554 C   0  0  0  0  0  0  0  0  0  0  0  0
    6.6193    1.1171   -1.2831 H   0  0  0  0  0  0  0  0  0  0  0  0
    4.9604    1.0121   -1.9670 H   0  0  0  0  0  0  0  0  0  0  0  0
    5.4841    2.5137   -1.1053 H   0  0  0  0  0  0  0  0  0  0  0  0
    6.9865    0.8974    1.1621 H   0  0  0  0  0  0  0  0  0  0  0  0
    6.1001    0.0671    3.3185 H   0  0  0  0  0  0  0  0  0  0  0  0
    1.4769   -0.0988    2.7903 H   0  0  0  0  0  0  0  0  0  0  0  0
   -0.6659    0.7520    1.5820 H   0  0  0  0  0  0  0  0  0  0  0  0
   -2.5522    1.0126   -2.2601 H   0  0  0  0  0  0  0  0  0  0  0  0
   -3.5725   -0.4544   -2.0163 H   0  0  0  0  0  0  0  0  0  0  0  0
   -4.1758    2.4376   -1.1198 H   0  0  0  0  0  0  0  0  0  0  0  0
   -5.0002    1.5256   -2.4281 H   0  0  0  0  0  0  0  0  0  0  0  0
   -6.2151    1.6758   -0.1493 H   0  0  0  0  0  0  0  0  0  0  0  0
   -6.1030    0.0675   -0.9065 H   0  0  0  0  0  0  0  0  0  0  0  0
   -5.3444    0.7915    1.7475 H   0  0  0  0  0  0  0  0  0  0  0  0
   -4.7041   -1.4608    1.9039 H   0  0  0  0  0  0  0  0  0  0  0  0
   -4.4800   -1.6148    0.2392 H   0  0  0  0  0  0  0  0  0  0  0  0
   -2.9043    0.1319    1.8466 H   0  0  0  0  0  0  0  0  0  0  0  0
   -3.2112    1.7548    1.1421 H   0  0  0  0  0  0  0  0  0  0  0  0
    0.4581   -2.9817   -2.9691 H   0  0  0  0  0  0  0  0  0  0  0  0
    2.9150   -3.4162   -1.9508 H   0  0  0  0  0  0  0  0  0  0  0  0
    2.9989    0.7719   -0.4574 H   0  0  0  0  0  0  0  0  0  0  0  0
  1  2  1  0
  2  3  2  0
  3  4  1  0
  4  5  2  0
  5  6  1  0
  6  7  1  0
  7  8  1  0
  8  9  2  0
  9 10  1  0
 10 11  1  0
 11 12  1  0
 12 13  1  0
 13 14  1  0
 14 15  1  0
 15 16  1  0
 15 17  1  0
 10 18  2  0
 18 19  1  0
 19 20  2  0
 20 21  1  0
 21 22  2  0
 22 23  1  0
  6 24  2  0
 24  2  1  0
 23  8  1  0
 17 11  1  0
 23 19  1  0
  1 25  1  0
  1 26  1  0
  1 27  1  0
  3 28  1  0
  4 29  1  0
  7 30  1  0
  9 31  1  0
 12 32  1  0
 12 33  1  0
 13 34  1  0
 13 35  1  0
 14 36  1  0
 14 37  1  0
 15 38  1  1
 16 39  1  0
 16 40  1  0
 17 41  1  0
 17 42  1  0
 20 43  1  0
 21 44  1  0
 24 45  1  0
M  END
$$$$
