
     RDKit          3D

 58 60  0  0  0  0  0  0  0  0999 V2000
    6.6652    0.3689   -3.5385 C   0  0  0  0  0  0  0  0  0  0  0  0
    5.6463    1.6680   -2.8785 S   0  0  0  0  0  0  0  0  0  0  0  0
    6.4986    2.8660   -2.5658 O   0  0  0  0  0  0  0  0  0  0  0  0
    4.6134    2.0636   -3.8963 O   0  0  0  0  0  0  0  0  0  0  0  0
    4.8529    1.1011   -1.4130 C   0  0  0  0  0  0  0  0  0  0  0  0
    5.4741    1.2598   -0.1686 C   0  0  0  0  0  0  0  0  0  0  0  0
    4.8508    0.7962    0.9934 C   0  0  0  0  0  0  0  0  0  0  0  0
    3.5933    0.1714    0.9294 C   0  0  0  0  0  0  0  0  0  0  0  0
    2.9575   -0.3120    2.1770 C   0  0  0  0  0  0  0  0  0  0  0  0
    3.6531   -0.6756    3.2801 N   0  0  0  0  0  0  0  0  0  0  0  0
    2.7715   -1.0064    4.2150 N   0  0  0  0  0  0  0  0  0  0  0  0
    1.5452   -0.8512    3.7484 N   0  0  0  0  0  0  0  0  0  0  0  0
    1.6101   -0.4257    2.4858 C   0  0  0  0  0  0  0  0  0  0  0  0
    0.3867   -0.1186    1.6764 C   0  0  0  0  0  0  0  0  0  0  0  0
   -0.8308   -0.0484    2.5155 N   0  0  0  0  0  0  0  0  0  0  0  0
   -2.0907    0.3232    1.9082 C   0  0  0  0  0  0  0  0  0  0  0  0
   -3.0191    0.7858    2.6269 O   0  0  0  0  0  0  0  0  0  0  0  0
   -2.3692    0.1220    0.4387 C   0  0  0  0  0  0  0  0  0  0  0  0
   -3.0746   -1.2257    0.1852 C   0  0  2  0  0  0  0  0  0  0  0  0
   -2.2307   -2.3282    0.6558 N   0  0  0  0  0  0  0  0  0  0  0  0
   -3.4212   -1.4167   -1.3100 C   0  0  0  0  0  0  0  0  0  0  0  0
   -4.4727   -0.4416   -1.7819 C   0  0  0  0  0  0  0  0  0  0  0  0
   -4.0990    0.7019   -2.5091 C   0  0  0  0  0  0  0  0  0  0  0  0
   -5.0666    1.6197   -2.9293 C   0  0  0  0  0  0  0  0  0  0  0  0
   -4.6951    2.7201   -3.6293 F   0  0  0  0  0  0  0  0  0  0  0  0
   -6.4142    1.4046   -2.6255 C   0  0  0  0  0  0  0  0  0  0  0  0
   -7.3534    2.2944   -3.0318 F   0  0  0  0  0  0  0  0  0  0  0  0
   -6.7947    0.2723   -1.9002 C   0  0  0  0  0  0  0  0  0  0  0  0
   -5.8310   -0.6488   -1.4766 C   0  0  0  0  0  0  0  0  0  0  0  0
   -6.2217   -1.7405   -0.7711 F   0  0  0  0  0  0  0  0  0  0  0  0
   -0.7564   -0.1115    3.9924 C   0  0  0  0  0  0  0  0  0  0  0  0
    0.3104   -1.1041    4.4681 C   0  0  0  0  0  0  0  0  0  0  0  0
    2.9873   -0.0073   -0.3268 C   0  0  0  0  0  0  0  0  0  0  0  0
    3.6126    0.4564   -1.4880 C   0  0  0  0  0  0  0  0  0  0  0  0
    0.6878    0.0000    0.0000 Cl  0  0  0  0  0  0  0  0  0  0  0  0
    7.1669    0.7228   -4.4627 H   0  0  0  0  0  0  0  0  0  0  0  0
    7.4317    0.0821   -2.7893 H   0  0  0  0  0  0  0  0  0  0  0  0
    6.0345   -0.5127   -3.7755 H   0  0  0  0  0  0  0  0  0  0  0  0
    6.4418    1.7397   -0.0966 H   0  0  0  0  0  0  0  0  0  0  0  0
    5.3478    0.9366    1.9454 H   0  0  0  0  0  0  0  0  0  0  0  0
    0.2651   -0.9337    0.9358 H   0  0  0  0  0  0  0  0  0  0  0  0
    0.5317    0.8499    1.1514 H   0  0  0  0  0  0  0  0  0  0  0  0
   -3.0271    0.9520    0.1034 H   0  0  0  0  0  0  0  0  0  0  0  0
   -1.4449    0.1926   -0.1696 H   0  0  0  0  0  0  0  0  0  0  0  0
   -4.0205   -1.2390    0.7730 H   0  0  0  0  0  0  0  0  0  0  0  0
   -1.4167   -2.4438    0.0087 H   0  0  0  0  0  0  0  0  0  0  0  0
   -2.7853   -3.2143    0.6191 H   0  0  0  0  0  0  0  0  0  0  0  0
   -3.7988   -2.4500   -1.4720 H   0  0  0  0  0  0  0  0  0  0  0  0
   -2.4993   -1.3199   -1.9253 H   0  0  0  0  0  0  0  0  0  0  0  0
   -3.0578    0.8849   -2.7447 H   0  0  0  0  0  0  0  0  0  0  0  0
   -7.8384    0.1084   -1.6643 H   0  0  0  0  0  0  0  0  0  0  0  0
   -0.5186    0.9009    4.3846 H   0  0  0  0  0  0  0  0  0  0  0  0
   -1.7320   -0.4299    4.4205 H   0  0  0  0  0  0  0  0  0  0  0  0
   -0.0255   -2.1432    4.2625 H   0  0  0  0  0  0  0  0  0  0  0  0
    0.4742   -0.9861    5.5610 H   0  0  0  0  0  0  0  0  0  0  0  0
    2.0499   -0.5318   -0.4253 H   0  0  0  0  0  0  0  0  0  0  0  0
    3.1334    0.3016   -2.4464 H   0  0  0  0  0  0  0  0  0  0  0  0
   -0.6878    0.0000    0.0000 H   0  0  0  0  0  0  0  0  0  0  0  0
  1  2  1  0
  2  3  2  0
  2  4  2  0
  2  5  1  0
  5  6  2  0
  6  7  1  0
  7  8  2  0
  8  9  1  0
  9 10  1  0
 10 11  2  0
 11 12  1  0
 12 13  1  0
 13 14  1  0
 14 15  1  0
 15 16  1  0
 16 17  2  0
 16 18  1  0
 18 19  1  0
 19 20  1  0
 19 21  1  0
 21 22  1  0
 22 23  2  0
 23 24  1  0
 24 25  1  0
 24 26  2  0
 26 27  1  0
 26 28  1  0
 28 29  2  0
 29 30  1  0
 15 31  1  0
 31 32  1  0
  8 33  1  0
 33 34  2  0
 34  5  1  0
 13  9  2  0
 29 22  1  0
 32 12  1  0
  1 36  1  0
  1 37  1  0
  1 38  1  0
  6 39  1  0
  7 40  1  0
 14 41  1  0
 14 42  1  0
 18 43  1  0
 18 44  1  0
 19 45  1  1
 20 46  1  0
 20 47  1  0
 21 48  1  0
 21 49  1  0
 23 50  1  0
 28 51  1  0
 31 52  1  0
 31 53  1  0
 32 54  1  0
 32 55  1  0
 33 56  1  0
 34 57  1  0
 35 58  1  0
M  END
$$$$
