
     RDKit          3D

 61 64  0  0  0  0  0  0  0  0999 V2000
    0.6878    0.0000    0.0000 Cl  0  0  0  0  0  0  0  0  0  0  0  0
   -3.0759    0.2783   -1.3001 N   0  0  0  0  0  0  0  0  0  0  0  0
   -2.5132   -0.2792   -0.0653 C   0  0  1  0  0  0  0  0  0  0  0  0
   -2.4652    0.7728    1.0683 C   0  0  0  0  0  0  0  0  0  0  0  0
   -1.5280    1.9062    0.7407 C   0  0  0  0  0  0  0  0  0  0  0  0
   -1.9981    3.0750    0.6778 O   0  0  0  0  0  0  0  0  0  0  0  0
   -0.1309    1.6817    0.4539 N   0  0  0  0  0  0  0  0  0  0  0  0
    0.6642    0.7171    1.2247 C   0  0  0  0  0  0  0  0  0  0  0  0
    1.6071   -0.0521    0.2992 C   0  0  0  0  0  0  0  0  0  0  0  0
    2.4548    0.8997   -0.5703 C   0  0  2  0  0  0  0  0  0  0  0  0
    1.5696    1.9283   -1.3273 C   0  0  1  0  0  0  0  0  0  0  0  0
    0.8161    1.2612   -2.5022 C   0  0  0  0  0  0  0  0  0  0  0  0
    1.7937    0.6460   -3.5156 C   0  0  0  0  0  0  0  0  0  0  0  0
    2.8976   -0.0924   -2.8214 C   0  0  0  0  0  0  0  0  0  0  0  0
    3.7362   -0.9496   -3.4293 N   0  0  0  0  0  0  0  0  0  0  0  0
    4.6154   -1.3329   -2.5151 N   0  0  0  0  0  0  0  0  0  0  0  0
    4.3117   -0.6932   -1.3651 C   0  0  0  0  0  0  0  0  0  0  0  0
    5.0796   -0.8849   -0.1114 C   0  0  0  0  0  0  0  0  0  0  0  0
    6.0374   -1.9089   -0.0149 C   0  0  0  0  0  0  0  0  0  0  0  0
    6.7573   -2.0695    1.1710 C   0  0  0  0  0  0  0  0  0  0  0  0
    6.5248   -1.2128    2.2470 C   0  0  0  0  0  0  0  0  0  0  0  0
    5.5717   -0.2020    2.1183 C   0  0  0  0  0  0  0  0  0  0  0  0
    4.8816   -0.0621    0.9554 N   0  0  0  0  0  0  0  0  0  0  0  0
    3.2374    0.1146   -1.5352 N   0  0  0  0  0  0  0  0  0  0  0  0
    0.6050    2.6489   -0.3690 C   0  0  0  0  0  0  0  0  0  0  0  0
   -3.2807   -1.5518    0.3519 C   0  0  0  0  0  0  0  0  0  0  0  0
   -4.7407   -1.3061    0.6591 C   0  0  0  0  0  0  0  0  0  0  0  0
   -5.1403   -0.9972    1.9712 C   0  0  0  0  0  0  0  0  0  0  0  0
   -6.4856   -0.7521    2.2623 C   0  0  0  0  0  0  0  0  0  0  0  0
   -6.8584   -0.4519    3.5311 F   0  0  0  0  0  0  0  0  0  0  0  0
   -7.4443   -0.8157    1.2470 C   0  0  0  0  0  0  0  0  0  0  0  0
   -8.7494   -0.5780    1.5280 F   0  0  0  0  0  0  0  0  0  0  0  0
   -7.0581   -1.1258   -0.0596 C   0  0  0  0  0  0  0  0  0  0  0  0
   -5.7136   -1.3714   -0.3570 C   0  0  0  0  0  0  0  0  0  0  0  0
   -5.3633   -1.6737   -1.6330 F   0  0  0  0  0  0  0  0  0  0  0  0
   -0.6878    0.0000    0.0000 H   0  0  0  0  0  0  0  0  0  0  0  0
   -2.3960    0.9636   -1.7021 H   0  0  0  0  0  0  0  0  0  0  0  0
   -3.9519    0.8068   -1.0821 H   0  0  0  0  0  0  0  0  0  0  0  0
   -1.4730   -0.6084   -0.2799 H   0  0  0  0  0  0  0  0  0  0  0  0
   -2.1557    0.3012    2.0237 H   0  0  0  0  0  0  0  0  0  0  0  0
   -3.4847    1.1827    1.2380 H   0  0  0  0  0  0  0  0  0  0  0  0
    0.0257   -0.0163    1.7548 H   0  0  0  0  0  0  0  0  0  0  0  0
    1.2567    1.2620    1.9915 H   0  0  0  0  0  0  0  0  0  0  0  0
    2.2722   -0.6895    0.9189 H   0  0  0  0  0  0  0  0  0  0  0  0
    1.0135   -0.7337   -0.3463 H   0  0  0  0  0  0  0  0  0  0  0  0
    3.1414    1.4779    0.0835 H   0  0  0  0  0  0  0  0  0  0  0  0
    2.2406    2.7042   -1.7610 H   0  0  0  0  0  0  0  0  0  0  0  0
    0.1308    0.4727   -2.1254 H   0  0  0  0  0  0  0  0  0  0  0  0
    0.1925    2.0168   -3.0278 H   0  0  0  0  0  0  0  0  0  0  0  0
    2.2439    1.4546   -4.1303 H   0  0  0  0  0  0  0  0  0  0  0  0
    1.2457   -0.0456   -4.1905 H   0  0  0  0  0  0  0  0  0  0  0  0
    6.2244   -2.5804   -0.8434 H   0  0  0  0  0  0  0  0  0  0  0  0
    7.4945   -2.8575    1.2553 H   0  0  0  0  0  0  0  0  0  0  0  0
    7.0779   -1.3298    3.1699 H   0  0  0  0  0  0  0  0  0  0  0  0
    5.3802    0.4727    2.9419 H   0  0  0  0  0  0  0  0  0  0  0  0
   -0.0909    3.2827   -0.9616 H   0  0  0  0  0  0  0  0  0  0  0  0
    1.1831    3.3246    0.2985 H   0  0  0  0  0  0  0  0  0  0  0  0
   -3.1928   -2.3072   -0.4592 H   0  0  0  0  0  0  0  0  0  0  0  0
   -2.7833   -2.0020    1.2393 H   0  0  0  0  0  0  0  0  0  0  0  0
   -4.4082   -0.9428    2.7674 H   0  0  0  0  0  0  0  0  0  0  0  0
   -7.8022   -1.1761   -0.8442 H   0  0  0  0  0  0  0  0  0  0  0  0
  2  3  1  0
  3  4  1  0
  4  5  1  0
  5  6  2  0
  5  7  1  0
  7  8  1  0
  8  9  1  0
  9 10  1  0
 10 11  1  0
 11 12  1  0
 12 13  1  0
 13 14  1  0
 14 15  2  0
 15 16  1  0
 16 17  2  0
 17 18  1  0
 18 19  2  0
 19 20  1  0
 20 21  2  0
 21 22  1  0
 22 23  2  0
 17 24  1  0
 11 25  1  0
  3 26  1  0
 26 27  1  0
 27 28  2  0
 28 29  1  0
 29 30  1  0
 29 31  2  0
 31 32  1  0
 31 33  1  0
 33 34  2  0
 34 35  1  0
 25  7  1  0
 34 27  1  0
 24 10  1  0
 24 14  1  0
 23 18  1  0
  1 36  1  0
  2 37  1  0
  2 38  1  0
  3 39  1  6
  4 40  1  0
  4 41  1  0
  8 42  1  0
  8 43  1  0
  9 44  1  0
  9 45  1  0
 10 46  1  1
 11 47  1  6
 12 48  1  0
 12 49  1  0
 13 50  1  0
 13 51  1  0
 19 52  1  0
 20 53  1  0
 21 54  1  0
 22 55  1  0
 25 56  1  0
 25 57  1  0
 26 58  1  0
 26 59  1  0
 28 60  1  0
 33 61  1  0
M  END
$$$$
