
     RDKit          3D

 44 45  0  0  0  0  0  0  0  0999 V2000
   -2.2105   -1.7675   -1.1004 C   0  0  0  0  0  0  0  0  0  0  0  0
   -1.9258   -1.0380    0.2178 C   0  0  2  0  0  0  0  0  0  0  0  0
   -2.9680   -1.3382    1.2687 C   0  0  0  0  0  0  0  0  0  0  0  0
   -2.7352   -2.2640    2.0919 O   0  0  0  0  0  0  0  0  0  0  0  0
   -4.2050   -0.6167    1.3806 N   0  0  0  0  0  0  0  0  0  0  0  0
   -4.7804    0.2312    0.3388 C   0  0  0  0  0  0  0  0  0  0  0  0
   -3.9506    1.4969    0.1223 C   0  0  0  0  0  0  0  0  0  0  0  0
   -2.6959    1.2328   -0.7093 C   0  0  0  0  0  0  0  0  0  0  0  0
   -1.7302    0.4131    0.0371 N   0  0  0  0  0  0  0  0  0  0  0  0
   -0.7473    1.0702    0.8590 C   0  0  0  0  0  0  0  0  0  0  0  0
   -0.6820    0.7997    2.0889 O   0  0  0  0  0  0  0  0  0  0  0  0
    0.2657    2.0121    0.2636 C   0  0  0  0  0  0  0  0  0  0  0  0
    1.6582    1.3607    0.1671 C   0  0  2  0  0  0  0  0  0  0  0  0
    2.6552    2.4050   -0.0885 N   0  0  0  0  0  0  0  0  0  0  0  0
    1.6921    0.2716   -0.9337 C   0  0  0  0  0  0  0  0  0  0  0  0
    2.9818   -0.5097   -0.9103 C   0  0  0  0  0  0  0  0  0  0  0  0
    4.0181   -0.1893   -1.8043 C   0  0  0  0  0  0  0  0  0  0  0  0
    5.2235   -0.8972   -1.7704 C   0  0  0  0  0  0  0  0  0  0  0  0
    6.2182   -0.5830   -2.6364 F   0  0  0  0  0  0  0  0  0  0  0  0
    5.4050   -1.9264   -0.8427 C   0  0  0  0  0  0  0  0  0  0  0  0
    4.3828   -2.2480    0.0539 C   0  0  0  0  0  0  0  0  0  0  0  0
    3.1749   -1.5432    0.0255 C   0  0  0  0  0  0  0  0  0  0  0  0
    2.1959   -1.8676    0.9081 F   0  0  0  0  0  0  0  0  0  0  0  0
   -1.4559   -1.4773   -1.8621 H   0  0  0  0  0  0  0  0  0  0  0  0
   -3.2210   -1.5447   -1.4928 H   0  0  0  0  0  0  0  0  0  0  0  0
   -2.1408   -2.8653   -0.9438 H   0  0  0  0  0  0  0  0  0  0  0  0
   -0.9637   -1.4682    0.5813 H   0  0  0  0  0  0  0  0  0  0  0  0
   -4.7899   -0.7946    2.2285 H   0  0  0  0  0  0  0  0  0  0  0  0
   -4.9056   -0.3394   -0.6035 H   0  0  0  0  0  0  0  0  0  0  0  0
   -5.7996    0.5401    0.6586 H   0  0  0  0  0  0  0  0  0  0  0  0
   -3.6749    1.9476    1.1009 H   0  0  0  0  0  0  0  0  0  0  0  0
   -4.5767    2.2365   -0.4229 H   0  0  0  0  0  0  0  0  0  0  0  0
   -2.9608    0.7534   -1.6742 H   0  0  0  0  0  0  0  0  0  0  0  0
   -2.2533    2.2152   -0.9728 H   0  0  0  0  0  0  0  0  0  0  0  0
    0.3238    2.9112    0.9152 H   0  0  0  0  0  0  0  0  0  0  0  0
   -0.0458    2.3546   -0.7447 H   0  0  0  0  0  0  0  0  0  0  0  0
    1.8916    0.8928    1.1507 H   0  0  0  0  0  0  0  0  0  0  0  0
    2.5686    2.7405   -1.0759 H   0  0  0  0  0  0  0  0  0  0  0  0
    3.6129    2.0025    0.0301 H   0  0  0  0  0  0  0  0  0  0  0  0
    1.5393    0.7369   -1.9325 H   0  0  0  0  0  0  0  0  0  0  0  0
    0.8518   -0.4393   -0.7928 H   0  0  0  0  0  0  0  0  0  0  0  0
    3.8932    0.6109   -2.5234 H   0  0  0  0  0  0  0  0  0  0  0  0
    6.3383   -2.4739   -0.8161 H   0  0  0  0  0  0  0  0  0  0  0  0
    4.5281   -3.0438    0.7731 H   0  0  0  0  0  0  0  0  0  0  0  0
  1  2  1  0
  2  3  1  0
  3  4  2  0
  3  5  1  0
  5  6  1  0
  6  7  1  0
  7  8  1  0
  8  9  1  0
  9 10  1  0
 10 11  2  0
 10 12  1  0
 12 13  1  0
 13 14  1  0
 13 15  1  0
 15 16  1  0
 16 17  2  0
 17 18  1  0
 18 19  1  0
 18 20  2  0
 20 21  1  0
 21 22  2  0
 22 23  1  0
  9  2  1  0
 22 16  1  0
  1 24  1  0
  1 25  1  0
  1 26  1  0
  2 27  1  1
  5 28  1  0
  6 29  1  0
  6 30  1  0
  7 31  1  0
  7 32  1  0
  8 33  1  0
  8 34  1  0
 12 35  1  0
 12 36  1  0
 13 37  1  1
 14 38  1  0
 14 39  1  0
 15 40  1  0
 15 41  1  0
 17 42  1  0
 20 43  1  0
 21 44  1  0
M  END
$$$$
