
     RDKit          3D

 64 68  0  0  0  0  0  0  0  0999 V2000
   -4.9885   -0.6312    1.9169 N   0  0  0  0  0  0  0  0  0  0  0  0
   -3.8187    0.1910    1.5941 C   0  0  1  0  0  0  0  0  0  0  0  0
   -2.5672   -0.6785    1.4063 C   0  0  0  0  0  0  0  0  0  0  0  0
   -1.3506    0.1817    1.0058 C   0  0  1  0  0  0  0  0  0  0  0  0
   -0.5547   -0.4997   -0.0209 N   0  0  0  0  0  0  0  0  0  0  0  0
   -0.8778   -0.6624   -1.3222 C   0  0  0  0  0  0  0  0  0  0  0  0
    0.1037   -1.4162   -1.9296 C   0  0  0  0  0  0  0  0  0  0  0  0
    0.9978   -1.6879   -0.9110 C   0  0  0  0  0  0  0  0  0  0  0  0
    2.2026   -2.4577   -1.0378 N   0  0  0  0  0  0  0  0  0  0  0  0
    2.7048   -3.0041   -2.2876 C   0  0  0  0  0  0  0  0  0  0  0  0
    4.0222   -3.7249   -1.9365 C   0  0  0  0  0  0  0  0  0  0  0  0
    4.4054   -3.2919   -0.4971 C   0  0  0  0  0  0  0  0  0  0  0  0
    4.7072   -4.4092    0.3025 O   0  0  0  0  0  0  0  0  0  0  0  0
    5.5184   -2.2634   -0.4516 C   0  0  0  0  0  0  0  0  0  0  0  0
    6.4141   -2.3551    0.4317 O   0  0  0  0  0  0  0  0  0  0  0  0
    5.5006   -1.1237   -1.3244 N   0  0  0  0  0  0  0  0  0  0  0  0
    5.8078    0.2126   -0.8269 C   0  0  0  0  0  0  0  0  0  0  0  0
    4.5711    0.8083   -0.2131 C   0  0  0  0  0  0  0  0  0  0  0  0
    3.5708    1.3516   -1.0359 C   0  0  0  0  0  0  0  0  0  0  0  0
    2.3874    1.8425   -0.4762 C   0  0  0  0  0  0  0  0  0  0  0  0
    1.4281    2.3677   -1.2771 F   0  0  0  0  0  0  0  0  0  0  0  0
    2.1903    1.7838    0.9065 C   0  0  0  0  0  0  0  0  0  0  0  0
    3.1727    1.2266    1.7300 C   0  0  0  0  0  0  0  0  0  0  0  0
    2.9721    1.1538    3.0688 F   0  0  0  0  0  0  0  0  0  0  0  0
    4.3585    0.7359    1.1732 C   0  0  0  0  0  0  0  0  0  0  0  0
    3.1576   -2.6580   -0.0117 C   0  0  0  0  0  0  0  0  0  0  0  0
    2.9703   -2.3069    1.1847 O   0  0  0  0  0  0  0  0  0  0  0  0
    0.5795   -1.1298    0.2408 N   0  0  0  0  0  0  0  0  0  0  0  0
   -1.7636    1.5983    0.5479 C   0  0  0  0  0  0  0  0  0  0  0  0
   -2.8998    1.5857   -0.2996 O   0  0  0  0  0  0  0  0  0  0  0  0
   -4.0635    1.0055    0.2929 C   0  0  2  0  0  0  0  0  0  0  0  0
   -5.1358    2.0593    0.5002 C   0  0  0  0  0  0  0  0  0  0  0  0
   -4.8165    3.3082    1.0668 C   0  0  0  0  0  0  0  0  0  0  0  0
   -5.8122    4.2653    1.2849 C   0  0  0  0  0  0  0  0  0  0  0  0
   -5.4902    5.4662    1.8258 F   0  0  0  0  0  0  0  0  0  0  0  0
   -7.1381    3.9853    0.9500 C   0  0  0  0  0  0  0  0  0  0  0  0
   -7.4722    2.7467    0.4000 C   0  0  0  0  0  0  0  0  0  0  0  0
   -6.4821    1.7839    0.1785 C   0  0  0  0  0  0  0  0  0  0  0  0
   -6.8416    0.5843   -0.3451 F   0  0  0  0  0  0  0  0  0  0  0  0
   -5.1097   -1.3719    1.1878 H   0  0  0  0  0  0  0  0  0  0  0  0
   -4.8143   -1.1163    2.8271 H   0  0  0  0  0  0  0  0  0  0  0  0
   -3.6429    0.8915    2.4421 H   0  0  0  0  0  0  0  0  0  0  0  0
   -2.7732   -1.4434    0.6247 H   0  0  0  0  0  0  0  0  0  0  0  0
   -2.3435   -1.2232    2.3497 H   0  0  0  0  0  0  0  0  0  0  0  0
   -0.7123    0.3147    1.9088 H   0  0  0  0  0  0  0  0  0  0  0  0
   -1.7701   -0.2768   -1.7966 H   0  0  0  0  0  0  0  0  0  0  0  0
    0.1508   -1.7301   -2.9637 H   0  0  0  0  0  0  0  0  0  0  0  0
    1.9678   -3.7149   -2.7201 H   0  0  0  0  0  0  0  0  0  0  0  0
    2.8942   -2.1789   -3.0073 H   0  0  0  0  0  0  0  0  0  0  0  0
    4.8190   -3.4971   -2.6775 H   0  0  0  0  0  0  0  0  0  0  0  0
    3.8424   -4.8226   -1.9669 H   0  0  0  0  0  0  0  0  0  0  0  0
    5.4945   -4.8567   -0.1060 H   0  0  0  0  0  0  0  0  0  0  0  0
    4.9669   -1.1760   -2.2195 H   0  0  0  0  0  0  0  0  0  0  0  0
    6.1520    0.8476   -1.6717 H   0  0  0  0  0  0  0  0  0  0  0  0
    6.6394    0.1740   -0.0899 H   0  0  0  0  0  0  0  0  0  0  0  0
    3.7058    1.3860   -2.1100 H   0  0  0  0  0  0  0  0  0  0  0  0
    1.2737    2.1620    1.3397 H   0  0  0  0  0  0  0  0  0  0  0  0
    5.1049    0.2906    1.8193 H   0  0  0  0  0  0  0  0  0  0  0  0
   -0.9215    2.0680   -0.0009 H   0  0  0  0  0  0  0  0  0  0  0  0
   -1.9473    2.2418    1.4346 H   0  0  0  0  0  0  0  0  0  0  0  0
   -4.4347    0.2822   -0.4658 H   0  0  0  0  0  0  0  0  0  0  0  0
   -3.8003    3.5490    1.3410 H   0  0  0  0  0  0  0  0  0  0  0  0
   -7.9087    4.7262    1.1202 H   0  0  0  0  0  0  0  0  0  0  0  0
   -8.5025    2.5307    0.1479 H   0  0  0  0  0  0  0  0  0  0  0  0
  1  2  1  0
  2  3  1  0
  3  4  1  0
  4  5  1  0
  5  6  1  0
  6  7  2  0
  7  8  1  0
  8  9  1  0
  9 10  1  0
 10 11  1  0
 11 12  1  0
 12 13  1  0
 12 14  1  0
 14 15  2  0
 14 16  1  0
 16 17  1  0
 17 18  1  0
 18 19  2  0
 19 20  1  0
 20 21  1  0
 20 22  2  0
 22 23  1  0
 23 24  1  0
 23 25  2  0
 12 26  1  0
 26 27  2  0
  8 28  2  0
  4 29  1  0
 29 30  1  0
 30 31  1  0
 31 32  1  0
 32 33  2  0
 33 34  1  0
 34 35  1  0
 34 36  2  0
 36 37  1  0
 37 38  2  0
 38 39  1  0
 31  2  1  0
 38 32  1  0
 28  5  1  0
 26  9  1  0
 25 18  1  0
  1 40  1  0
  1 41  1  0
  2 42  1  1
  3 43  1  0
  3 44  1  0
  4 45  1  1
  6 46  1  0
  7 47  1  0
 10 48  1  0
 10 49  1  0
 11 50  1  0
 11 51  1  0
 13 52  1  0
 16 53  1  0
 17 54  1  0
 17 55  1  0
 19 56  1  0
 22 57  1  0
 25 58  1  0
 29 59  1  0
 29 60  1  0
 31 61  1  6
 33 62  1  0
 36 63  1  0
 37 64  1  0
M  END
$$$$
