
     RDKit          3D

 50 53  0  0  0  0  0  0  0  0999 V2000
    2.6381    0.2339    2.1082 O   0  0  0  0  0  0  0  0  0  0  0  0
    3.1951    0.3451    0.9816 C   0  0  0  0  0  0  0  0  0  0  0  0
    2.3597    0.6726   -0.2403 C   0  0  2  0  0  0  0  0  0  0  0  0
    1.1517    1.5589    0.0503 C   0  0  0  0  0  0  0  0  0  0  0  0
    0.1752    1.2060   -1.0666 C   0  0  2  0  0  0  0  0  0  0  0  0
   -1.2392    1.1911   -0.6076 N   0  0  0  0  0  0  0  0  0  0  0  0
   -1.5563    0.1715    0.4342 C   0  0  0  0  0  0  0  0  0  0  0  0
   -2.8032   -0.6723    0.1273 C   0  0  0  0  0  0  0  0  0  0  0  0
   -3.9037    0.1944   -0.3118 N   0  0  0  0  0  0  0  0  0  0  0  0
   -5.2632   -0.0612    0.0958 C   0  0  0  0  0  0  0  0  0  0  0  0
   -5.5717   -1.1743    0.8183 N   0  0  0  0  0  0  0  0  0  0  0  0
   -6.8476   -1.4305    1.2072 C   0  0  0  0  0  0  0  0  0  0  0  0
   -7.8688   -0.5461    0.8659 C   0  0  0  0  0  0  0  0  0  0  0  0
   -7.5431    0.5886    0.1257 C   0  0  0  0  0  0  0  0  0  0  0  0
   -6.2549    0.8093   -0.2441 N   0  0  0  0  0  0  0  0  0  0  0  0
   -3.6245    1.2741   -1.2662 C   0  0  0  0  0  0  0  0  0  0  0  0
   -2.1738    1.2192   -1.7519 C   0  0  0  0  0  0  0  0  0  0  0  0
    0.6714   -0.1351   -1.6393 C   0  0  0  0  0  0  0  0  0  0  0  0
    1.8581   -0.5430   -0.8839 N   0  0  0  0  0  0  0  0  0  0  0  0
    4.6054    0.0813    0.8670 N   0  0  0  0  0  0  0  0  0  0  0  0
    5.4477   -0.2096    2.0153 C   0  0  0  0  0  0  0  0  0  0  0  0
    6.8693   -0.2815    1.4677 C   0  0  0  0  0  0  0  0  0  0  0  0
    7.5862   -1.2983    2.0767 F   0  0  0  0  0  0  0  0  0  0  0  0
    7.5135    0.9264    1.6855 F   0  0  0  0  0  0  0  0  0  0  0  0
    6.7105   -0.5300   -0.0354 C   0  0  0  0  0  0  0  0  0  0  0  0
    7.7038    0.1058   -0.7619 F   0  0  0  0  0  0  0  0  0  0  0  0
    6.7498   -1.8902   -0.3000 F   0  0  0  0  0  0  0  0  0  0  0  0
    5.3335    0.0211   -0.3908 C   0  0  0  0  0  0  0  0  0  0  0  0
    2.9958    1.2153   -0.9738 H   0  0  0  0  0  0  0  0  0  0  0  0
    0.7189    1.3423    1.0485 H   0  0  0  0  0  0  0  0  0  0  0  0
    1.4309    2.6352    0.0190 H   0  0  0  0  0  0  0  0  0  0  0  0
    0.2976    1.9851   -1.8551 H   0  0  0  0  0  0  0  0  0  0  0  0
   -0.7092   -0.5206    0.6255 H   0  0  0  0  0  0  0  0  0  0  0  0
   -1.7378    0.7112    1.3882 H   0  0  0  0  0  0  0  0  0  0  0  0
   -3.0743   -1.2365    1.0453 H   0  0  0  0  0  0  0  0  0  0  0  0
   -2.5735   -1.4085   -0.6728 H   0  0  0  0  0  0  0  0  0  0  0  0
   -7.0678   -2.3208    1.7808 H   0  0  0  0  0  0  0  0  0  0  0  0
   -8.8905   -0.7361    1.1681 H   0  0  0  0  0  0  0  0  0  0  0  0
   -8.3131    1.2944   -0.1556 H   0  0  0  0  0  0  0  0  0  0  0  0
   -3.8133    2.2539   -0.7764 H   0  0  0  0  0  0  0  0  0  0  0  0
   -4.2965    1.1806   -2.1472 H   0  0  0  0  0  0  0  0  0  0  0  0
   -1.9847    2.1215   -2.3738 H   0  0  0  0  0  0  0  0  0  0  0  0
   -2.0341    0.3227   -2.3959 H   0  0  0  0  0  0  0  0  0  0  0  0
    0.9576   -0.0015   -2.7052 H   0  0  0  0  0  0  0  0  0  0  0  0
   -0.1040   -0.9317   -1.6100 H   0  0  0  0  0  0  0  0  0  0  0  0
    1.5435   -1.2146   -0.1429 H   0  0  0  0  0  0  0  0  0  0  0  0
    5.3556    0.5933    2.7789 H   0  0  0  0  0  0  0  0  0  0  0  0
    5.1451   -1.1838    2.4575 H   0  0  0  0  0  0  0  0  0  0  0  0
    5.4195    1.0440   -0.8176 H   0  0  0  0  0  0  0  0  0  0  0  0
    4.8154   -0.6475   -1.1122 H   0  0  0  0  0  0  0  0  0  0  0  0
  1  2  2  0
  2  3  1  0
  3  4  1  0
  4  5  1  0
  5  6  1  0
  6  7  1  0
  7  8  1  0
  8  9  1  0
  9 10  1  0
 10 11  2  0
 11 12  1  0
 12 13  2  0
 13 14  1  0
 14 15  2  0
  9 16  1  0
 16 17  1  0
  5 18  1  0
 18 19  1  0
  2 20  1  0
 20 21  1  0
 21 22  1  0
 22 23  1  0
 22 24  1  0
 22 25  1  0
 25 26  1  0
 25 27  1  0
 25 28  1  0
 19  3  1  0
 28 20  1  0
 17  6  1  0
 15 10  1  0
  3 29  1  6
  4 30  1  0
  4 31  1  0
  5 32  1  6
  7 33  1  0
  7 34  1  0
  8 35  1  0
  8 36  1  0
 12 37  1  0
 13 38  1  0
 14 39  1  0
 16 40  1  0
 16 41  1  0
 17 42  1  0
 17 43  1  0
 18 44  1  0
 18 45  1  0
 19 46  1  0
 21 47  1  0
 21 48  1  0
 28 49  1  0
 28 50  1  0
M  END
$$$$
