
     RDKit          3D

 62 63  0  0  0  0  0  0  0  0999 V2000
   -1.3306    2.8864    2.8789 C   0  0  0  0  0  0  0  0  0  0  0  0
   -0.9558    2.5674    1.4970 N   0  0  0  0  0  0  0  0  0  0  0  0
   -0.3984    3.6141    0.6328 C   0  0  0  0  0  0  0  0  0  0  0  0
   -1.1338    1.2130    1.0217 C   0  0  0  0  0  0  0  0  0  0  0  0
   -1.5421    0.3283    1.8252 O   0  0  0  0  0  0  0  0  0  0  0  0
   -0.7859    0.8054   -0.4028 C   0  0  1  0  0  0  0  0  0  0  0  0
    0.6885    0.4523   -0.4882 C   0  0  0  0  0  0  0  0  0  0  0  0
    1.5176    1.1091   -1.4126 C   0  0  0  0  0  0  0  0  0  0  0  0
    2.8718    0.7798   -1.5120 C   0  0  0  0  0  0  0  0  0  0  0  0
    3.4261   -0.2206   -0.6948 C   0  0  0  0  0  0  0  0  0  0  0  0
    4.8655   -0.5710   -0.8014 C   0  0  0  0  0  0  0  0  0  0  0  0
    5.2819   -1.9145   -0.7397 C   0  0  0  0  0  0  0  0  0  0  0  0
    6.6377   -2.2414   -0.8408 C   0  0  0  0  0  0  0  0  0  0  0  0
    7.5917   -1.2341   -1.0034 C   0  0  0  0  0  0  0  0  0  0  0  0
    8.9057   -1.5537   -1.1008 F   0  0  0  0  0  0  0  0  0  0  0  0
    7.1912    0.1027   -1.0657 C   0  0  0  0  0  0  0  0  0  0  0  0
    5.8366    0.4350   -0.9661 C   0  0  0  0  0  0  0  0  0  0  0  0
    2.5943   -0.8858    0.2224 C   0  0  0  0  0  0  0  0  0  0  0  0
    1.2405   -0.5555    0.3229 C   0  0  0  0  0  0  0  0  0  0  0  0
   -1.6796   -0.3634   -0.9205 C   0  0  2  0  0  0  0  0  0  0  0  0
   -1.3562   -0.7203   -2.3055 N   0  0  0  0  0  0  0  0  0  0  0  0
   -3.1482   -0.0000   -0.8488 C   0  0  0  0  0  0  0  0  0  0  0  0
   -3.5415    1.0548   -1.4189 O   0  0  0  0  0  0  0  0  0  0  0  0
   -4.1070   -0.8289   -0.1645 N   0  0  0  0  0  0  0  0  0  0  0  0
   -5.4946   -0.4360    0.0096 C   0  0  0  0  0  0  0  0  0  0  0  0
   -6.1194   -1.5088    0.8909 C   0  0  0  0  0  0  0  0  0  0  0  0
   -5.1707   -2.7022    0.8294 C   0  0  0  0  0  0  0  0  0  0  0  0
   -3.8238   -2.1411    0.3935 C   0  0  0  0  0  0  0  0  0  0  0  0
    0.9515    0.8500   -1.1534 O   0  0  0  0  0  0  0  0  0  0  0  0
    0.5044    0.1081   -0.2382 C   0  0  0  0  0  0  0  0  0  0  0  0
    1.3829   -0.6443    0.5356 O   0  0  0  0  0  0  0  0  0  0  0  0
   -0.9608    0.0820    0.0544 C   0  0  0  0  0  0  0  0  0  0  0  0
   -1.2938   -1.0967    0.6965 F   0  0  0  0  0  0  0  0  0  0  0  0
   -1.6798    0.1713   -1.1238 F   0  0  0  0  0  0  0  0  0  0  0  0
   -1.2848    1.1506    0.8686 F   0  0  0  0  0  0  0  0  0  0  0  0
   -0.7223    2.2784    3.5815 H   0  0  0  0  0  0  0  0  0  0  0  0
   -1.1672    3.9584    3.1164 H   0  0  0  0  0  0  0  0  0  0  0  0
   -2.4064    2.6597    3.0363 H   0  0  0  0  0  0  0  0  0  0  0  0
   -0.2546    4.5678    1.1823 H   0  0  0  0  0  0  0  0  0  0  0  0
   -1.0881    3.8129   -0.2136 H   0  0  0  0  0  0  0  0  0  0  0  0
    0.5926    3.2987    0.2468 H   0  0  0  0  0  0  0  0  0  0  0  0
   -0.9899    1.6721   -1.0663 H   0  0  0  0  0  0  0  0  0  0  0  0
    1.1161    1.8769   -2.0621 H   0  0  0  0  0  0  0  0  0  0  0  0
    3.4816    1.2951   -2.2435 H   0  0  0  0  0  0  0  0  0  0  0  0
    4.5585   -2.7128   -0.6314 H   0  0  0  0  0  0  0  0  0  0  0  0
    6.9472   -3.2777   -0.7963 H   0  0  0  0  0  0  0  0  0  0  0  0
    7.9304    0.8839   -1.1880 H   0  0  0  0  0  0  0  0  0  0  0  0
    5.5507    1.4788   -1.0000 H   0  0  0  0  0  0  0  0  0  0  0  0
    2.9940   -1.6520    0.8747 H   0  0  0  0  0  0  0  0  0  0  0  0
    0.6239   -1.0869    1.0362 H   0  0  0  0  0  0  0  0  0  0  0  0
   -1.4833   -1.2528   -0.2867 H   0  0  0  0  0  0  0  0  0  0  0  0
   -0.4149   -1.1748   -2.3339 H   0  0  0  0  0  0  0  0  0  0  0  0
   -1.3086    0.1451   -2.8919 H   0  0  0  0  0  0  0  0  0  0  0  0
   -5.9995   -0.4017   -0.9803 H   0  0  0  0  0  0  0  0  0  0  0  0
   -5.5574    0.5590    0.5018 H   0  0  0  0  0  0  0  0  0  0  0  0
   -7.1373   -1.7820    0.5375 H   0  0  0  0  0  0  0  0  0  0  0  0
   -6.1828   -1.1403    1.9386 H   0  0  0  0  0  0  0  0  0  0  0  0
   -5.5368   -3.4269    0.0689 H   0  0  0  0  0  0  0  0  0  0  0  0
   -5.0980   -3.2126    1.8143 H   0  0  0  0  0  0  0  0  0  0  0  0
   -3.3610   -2.7994   -0.3736 H   0  0  0  0  0  0  0  0  0  0  0  0
   -3.1483   -2.0375    1.2701 H   0  0  0  0  0  0  0  0  0  0  0  0
    2.3804   -0.6210    0.3603 H   0  0  0  0  0  0  0  0  0  0  0  0
  1  2  1  0
  2  3  1  0
  2  4  1  0
  4  5  2  0
  4  6  1  0
  6  7  1  0
  7  8  2  0
  8  9  1  0
  9 10  2  0
 10 11  1  0
 11 12  2  0
 12 13  1  0
 13 14  2  0
 14 15  1  0
 14 16  1  0
 16 17  2  0
 10 18  1  0
 18 19  2  0
  6 20  1  0
 20 21  1  0
 20 22  1  0
 22 23  2  0
 22 24  1  0
 24 25  1  0
 25 26  1  0
 26 27  1  0
 27 28  1  0
 29 30  2  0
 30 31  1  0
 30 32  1  0
 32 33  1  0
 32 34  1  0
 32 35  1  0
 19  7  1  0
 28 24  1  0
 17 11  1  0
  1 36  1  0
  1 37  1  0
  1 38  1  0
  3 39  1  0
  3 40  1  0
  3 41  1  0
  6 42  1  6
  8 43  1  0
  9 44  1  0
 12 45  1  0
 13 46  1  0
 16 47  1  0
 17 48  1  0
 18 49  1  0
 19 50  1  0
 20 51  1  1
 21 52  1  0
 21 53  1  0
 25 54  1  0
 25 55  1  0
 26 56  1  0
 26 57  1  0
 27 58  1  0
 27 59  1  0
 28 60  1  0
 28 61  1  0
 31 62  1  0
M  END
$$$$
