
     RDKit          3D

 35 36  0  0  0  0  0  0  0  0999 V2000
    0.6201   -1.6253    1.3260 N   0  0  0  0  0  0  0  0  0  0  0  0
   -0.3814   -0.7438    0.7185 C   0  0  1  0  0  0  0  0  0  0  0  0
    0.3025    0.2244   -0.2677 C   0  0  0  0  0  0  0  0  0  0  0  0
    1.3295    1.0776    0.4320 C   0  0  0  0  0  0  0  0  0  0  0  0
    0.9271    2.0589    1.1148 O   0  0  0  0  0  0  0  0  0  0  0  0
    2.7381    0.7724    0.3888 N   0  0  0  0  0  0  0  0  0  0  0  0
    3.6795    1.4480    1.2702 C   0  0  0  0  0  0  0  0  0  0  0  0
    5.0042    0.7094    1.1949 C   0  0  0  0  0  0  0  0  0  0  0  0
    5.1298   -0.0508   -0.4465 S   0  0  0  0  0  0  0  0  0  0  0  0
    3.3213   -0.1646   -0.5630 C   0  0  0  0  0  0  0  0  0  0  0  0
   -1.4831   -1.5803    0.0267 C   0  0  0  0  0  0  0  0  0  0  0  0
   -2.6535   -0.7318   -0.4099 C   0  0  0  0  0  0  0  0  0  0  0  0
   -3.5944   -0.3004    0.5410 C   0  0  0  0  0  0  0  0  0  0  0  0
   -4.6716    0.5026    0.1553 C   0  0  0  0  0  0  0  0  0  0  0  0
   -4.8170    0.8849   -1.1803 C   0  0  0  0  0  0  0  0  0  0  0  0
   -3.8846    0.4661   -2.1327 C   0  0  0  0  0  0  0  0  0  0  0  0
   -2.8043   -0.3380   -1.7539 C   0  0  0  0  0  0  0  0  0  0  0  0
   -1.9056   -0.7235   -2.6951 F   0  0  0  0  0  0  0  0  0  0  0  0
    0.9621   -2.3076    0.6103 H   0  0  0  0  0  0  0  0  0  0  0  0
    0.1643   -2.1760    2.0896 H   0  0  0  0  0  0  0  0  0  0  0  0
   -0.8515   -0.1428    1.5299 H   0  0  0  0  0  0  0  0  0  0  0  0
    0.7499   -0.3451   -1.1075 H   0  0  0  0  0  0  0  0  0  0  0  0
   -0.4565    0.9043   -0.7099 H   0  0  0  0  0  0  0  0  0  0  0  0
    3.3059    1.4386    2.3174 H   0  0  0  0  0  0  0  0  0  0  0  0
    3.8071    2.4997    0.9340 H   0  0  0  0  0  0  0  0  0  0  0  0
    5.8546    1.4028    1.3652 H   0  0  0  0  0  0  0  0  0  0  0  0
    5.0303   -0.0968    1.9591 H   0  0  0  0  0  0  0  0  0  0  0  0
    3.0190    0.1012   -1.5977 H   0  0  0  0  0  0  0  0  0  0  0  0
    3.0011   -1.1995   -0.3238 H   0  0  0  0  0  0  0  0  0  0  0  0
   -1.8562   -2.3511    0.7363 H   0  0  0  0  0  0  0  0  0  0  0  0
   -1.0529   -2.1335   -0.8365 H   0  0  0  0  0  0  0  0  0  0  0  0
   -3.4917   -0.5854    1.5808 H   0  0  0  0  0  0  0  0  0  0  0  0
   -5.3930    0.8302    0.8927 H   0  0  0  0  0  0  0  0  0  0  0  0
   -5.6511    1.5076   -1.4770 H   0  0  0  0  0  0  0  0  0  0  0  0
   -3.9984    0.7676   -3.1661 H   0  0  0  0  0  0  0  0  0  0  0  0
  1  2  1  0
  2  3  1  0
  3  4  1  0
  4  5  2  0
  4  6  1  0
  6  7  1  0
  7  8  1  0
  8  9  1  0
  9 10  1  0
  2 11  1  0
 11 12  1  0
 12 13  2  0
 13 14  1  0
 14 15  2  0
 15 16  1  0
 16 17  2  0
 17 18  1  0
 10  6  1  0
 17 12  1  0
  1 19  1  0
  1 20  1  0
  2 21  1  1
  3 22  1  0
  3 23  1  0
  7 24  1  0
  7 25  1  0
  8 26  1  0
  8 27  1  0
 10 28  1  0
 10 29  1  0
 11 30  1  0
 11 31  1  0
 13 32  1  0
 14 33  1  0
 15 34  1  0
 16 35  1  0
M  END
$$$$
