
     RDKit          3D

 48 49  0  0  0  0  0  0  0  0999 V2000
   -1.6968   -1.3661    1.9580 N   0  0  0  0  0  0  0  0  0  0  0  0
   -1.1808   -0.0948    1.4396 C   0  0  1  0  0  0  0  0  0  0  0  0
   -0.4762   -0.2492    0.0701 C   0  0  0  0  0  0  0  0  0  0  0  0
    0.7601   -1.1560    0.1260 C   0  0  0  0  0  0  0  0  0  0  0  0
    1.7700   -0.5924    1.0323 N   0  0  0  0  0  0  0  0  0  0  0  0
    2.8175   -1.5649    1.3863 C   0  0  0  0  0  0  0  0  0  0  0  0
    3.7465   -1.9292    0.2117 C   0  0  0  0  0  0  0  0  0  0  0  0
    4.5199   -0.7390   -0.2961 C   0  0  0  0  0  0  0  0  0  0  0  0
    5.6100   -0.2400    0.4367 C   0  0  0  0  0  0  0  0  0  0  0  0
    6.3147    0.8775   -0.0214 C   0  0  0  0  0  0  0  0  0  0  0  0
    5.9352    1.5059   -1.2105 C   0  0  0  0  0  0  0  0  0  0  0  0
    4.8499    1.0181   -1.9435 C   0  0  0  0  0  0  0  0  0  0  0  0
    4.1427   -0.0994   -1.4894 C   0  0  0  0  0  0  0  0  0  0  0  0
   -2.2908    0.9275    1.3622 C   0  0  0  0  0  0  0  0  0  0  0  0
   -2.2768    1.8958    2.1706 O   0  0  0  0  0  0  0  0  0  0  0  0
   -3.3295    0.8610    0.3658 N   0  0  0  0  0  0  0  0  0  0  0  0
   -3.7879    2.1062   -0.2636 C   0  0  0  0  0  0  0  0  0  0  0  0
   -4.2084    1.8363   -1.7116 C   0  0  0  0  0  0  0  0  0  0  0  0
   -5.2377    0.6919   -1.8377 C   0  0  0  0  0  0  0  0  0  0  0  0
   -5.4163   -0.1257   -0.5488 C   0  0  0  0  0  0  0  0  0  0  0  0
   -4.0747   -0.3887    0.1447 C   0  0  0  0  0  0  0  0  0  0  0  0
   -0.9176   -1.8740    2.4365 H   0  0  0  0  0  0  0  0  0  0  0  0
   -2.0159   -1.9778    1.1729 H   0  0  0  0  0  0  0  0  0  0  0  0
   -0.4298    0.2966    2.1639 H   0  0  0  0  0  0  0  0  0  0  0  0
   -0.1622    0.7542   -0.2941 H   0  0  0  0  0  0  0  0  0  0  0  0
   -1.1811   -0.6626   -0.6812 H   0  0  0  0  0  0  0  0  0  0  0  0
    0.4548   -2.1740    0.4528 H   0  0  0  0  0  0  0  0  0  0  0  0
    1.1742   -1.2374   -0.9022 H   0  0  0  0  0  0  0  0  0  0  0  0
    2.1989    0.2548    0.5931 H   0  0  0  0  0  0  0  0  0  0  0  0
    3.4279   -1.1401    2.2121 H   0  0  0  0  0  0  0  0  0  0  0  0
    2.3538   -2.4924    1.7883 H   0  0  0  0  0  0  0  0  0  0  0  0
    3.1665   -2.4042   -0.6076 H   0  0  0  0  0  0  0  0  0  0  0  0
    4.4683   -2.6988    0.5618 H   0  0  0  0  0  0  0  0  0  0  0  0
    5.9116   -0.7155    1.3618 H   0  0  0  0  0  0  0  0  0  0  0  0
    7.1541    1.2574    0.5466 H   0  0  0  0  0  0  0  0  0  0  0  0
    6.4811    2.3714   -1.5632 H   0  0  0  0  0  0  0  0  0  0  0  0
    4.5554    1.5071   -2.8630 H   0  0  0  0  0  0  0  0  0  0  0  0
    3.3016   -0.4628   -2.0661 H   0  0  0  0  0  0  0  0  0  0  0  0
   -2.9723    2.8627   -0.2670 H   0  0  0  0  0  0  0  0  0  0  0  0
   -4.6443    2.5206    0.3113 H   0  0  0  0  0  0  0  0  0  0  0  0
   -3.2987    1.5712   -2.2945 H   0  0  0  0  0  0  0  0  0  0  0  0
   -4.6254    2.7677   -2.1524 H   0  0  0  0  0  0  0  0  0  0  0  0
   -6.2252    1.1121   -2.1282 H   0  0  0  0  0  0  0  0  0  0  0  0
   -4.9198    0.0095   -2.6564 H   0  0  0  0  0  0  0  0  0  0  0  0
   -6.0813    0.4297    0.1487 H   0  0  0  0  0  0  0  0  0  0  0  0
   -5.9103   -1.0927   -0.7860 H   0  0  0  0  0  0  0  0  0  0  0  0
   -3.4733   -1.0768   -0.4845 H   0  0  0  0  0  0  0  0  0  0  0  0
   -4.2820   -0.8804    1.1197 H   0  0  0  0  0  0  0  0  0  0  0  0
  1  2  1  0
  2  3  1  0
  3  4  1  0
  4  5  1  0
  5  6  1  0
  6  7  1  0
  7  8  1  0
  8  9  2  0
  9 10  1  0
 10 11  2  0
 11 12  1  0
 12 13  2  0
  2 14  1  0
 14 15  2  0
 14 16  1  0
 16 17  1  0
 17 18  1  0
 18 19  1  0
 19 20  1  0
 20 21  1  0
 13  8  1  0
 21 16  1  0
  1 22  1  0
  1 23  1  0
  2 24  1  1
  3 25  1  0
  3 26  1  0
  4 27  1  0
  4 28  1  0
  5 29  1  0
  6 30  1  0
  6 31  1  0
  7 32  1  0
  7 33  1  0
  9 34  1  0
 10 35  1  0
 11 36  1  0
 12 37  1  0
 13 38  1  0
 17 39  1  0
 17 40  1  0
 18 41  1  0
 18 42  1  0
 19 43  1  0
 19 44  1  0
 20 45  1  0
 20 46  1  0
 21 47  1  0
 21 48  1  0
M  END
$$$$
