
     RDKit          3D

 43 45  0  0  0  0  0  0  0  0999 V2000
    2.8741   -4.0455   -1.1541 C   0  0  0  0  0  0  0  0  0  0  0  0
    2.3418   -3.0774   -0.1958 C   0  0  0  0  0  0  0  0  0  0  0  0
    1.9004   -2.2785    0.5913 C   0  0  0  0  0  0  0  0  0  0  0  0
    1.3585   -1.3038    1.5439 C   0  0  0  0  0  0  0  0  0  0  0  0
    1.1028   -0.0186    0.8672 N   0  0  0  0  0  0  0  0  0  0  0  0
   -0.1613    0.2853    0.3824 C   0  0  0  0  0  0  0  0  0  0  0  0
   -1.2404   -0.6549    0.4906 N   0  0  0  0  0  0  0  0  0  0  0  0
   -1.3437   -1.7529   -0.4738 C   0  0  0  0  0  0  0  0  0  0  0  0
   -2.4703   -1.4577   -1.4696 C   0  0  0  0  0  0  0  0  0  0  0  0
   -3.7799   -1.1343   -0.7348 C   0  0  0  0  0  0  0  0  0  0  0  0
   -3.5885    0.0248    0.2619 C   0  0  1  0  0  0  0  0  0  0  0  0
   -4.8400    0.2825    0.9764 N   0  0  0  0  0  0  0  0  0  0  0  0
   -2.4441   -0.2949    1.2432 C   0  0  0  0  0  0  0  0  0  0  0  0
   -0.4045    1.4903   -0.2151 N   0  0  0  0  0  0  0  0  0  0  0  0
    0.6089    2.3717   -0.3452 C   0  0  0  0  0  0  0  0  0  0  0  0
    0.5976    3.6235   -0.9147 C   0  0  0  0  0  0  0  0  0  0  0  0
    1.9091    4.0752   -0.7912 C   0  0  0  0  0  0  0  0  0  0  0  0
    2.6804    3.1431   -0.1772 N   0  0  0  0  0  0  0  0  0  0  0  0
    4.1044    3.2662    0.1209 C   0  0  0  0  0  0  0  0  0  0  0  0
    1.8645    2.1022    0.0896 C   0  0  0  0  0  0  0  0  0  0  0  0
    2.1352    0.8831    0.7084 C   0  0  0  0  0  0  0  0  0  0  0  0
    3.3003    0.6162    1.1123 O   0  0  0  0  0  0  0  0  0  0  0  0
    3.1382   -4.9838   -0.6243 H   0  0  0  0  0  0  0  0  0  0  0  0
    3.7800   -3.6265   -1.6385 H   0  0  0  0  0  0  0  0  0  0  0  0
    2.1074   -4.2601   -1.9267 H   0  0  0  0  0  0  0  0  0  0  0  0
    0.4348   -1.7150    2.0021 H   0  0  0  0  0  0  0  0  0  0  0  0
    2.0815   -1.1714    2.3772 H   0  0  0  0  0  0  0  0  0  0  0  0
   -0.3900   -1.8863   -1.0286 H   0  0  0  0  0  0  0  0  0  0  0  0
   -1.5614   -2.6988    0.0681 H   0  0  0  0  0  0  0  0  0  0  0  0
   -2.1804   -0.5944   -2.1080 H   0  0  0  0  0  0  0  0  0  0  0  0
   -2.6223   -2.3393   -2.1285 H   0  0  0  0  0  0  0  0  0  0  0  0
   -4.5555   -0.8563   -1.4809 H   0  0  0  0  0  0  0  0  0  0  0  0
   -4.1318   -2.0425   -0.1969 H   0  0  0  0  0  0  0  0  0  0  0  0
   -3.3175    0.9390   -0.3129 H   0  0  0  0  0  0  0  0  0  0  0  0
   -4.7056    1.1163    1.5936 H   0  0  0  0  0  0  0  0  0  0  0  0
   -5.0607   -0.5312    1.5962 H   0  0  0  0  0  0  0  0  0  0  0  0
   -2.7299   -1.1495    1.8947 H   0  0  0  0  0  0  0  0  0  0  0  0
   -2.2482    0.5813    1.9003 H   0  0  0  0  0  0  0  0  0  0  0  0
   -0.2406    4.1406   -1.3623 H   0  0  0  0  0  0  0  0  0  0  0  0
    2.2723    5.0349   -1.1361 H   0  0  0  0  0  0  0  0  0  0  0  0
    4.6670    2.4625   -0.3987 H   0  0  0  0  0  0  0  0  0  0  0  0
    4.4912    4.2490   -0.2234 H   0  0  0  0  0  0  0  0  0  0  0  0
    4.2665    3.1860    1.2163 H   0  0  0  0  0  0  0  0  0  0  0  0
  1  2  1  0
  2  3  3  0
  3  4  1  0
  4  5  1  0
  5  6  1  0
  6  7  1  0
  7  8  1  0
  8  9  1  0
  9 10  1  0
 10 11  1  0
 11 12  1  0
 11 13  1  0
  6 14  2  0
 14 15  1  0
 15 16  1  0
 16 17  2  0
 17 18  1  0
 18 19  1  0
 18 20  1  0
 20 21  1  0
 21 22  2  0
 21  5  1  0
 13  7  1  0
 20 15  2  0
  1 23  1  0
  1 24  1  0
  1 25  1  0
  4 26  1  0
  4 27  1  0
  8 28  1  0
  8 29  1  0
  9 30  1  0
  9 31  1  0
 10 32  1  0
 10 33  1  0
 11 34  1  6
 12 35  1  0
 12 36  1  0
 13 37  1  0
 13 38  1  0
 16 39  1  0
 17 40  1  0
 19 41  1  0
 19 42  1  0
 19 43  1  0
M  END
$$$$
