
     RDKit          3D

 60 62  0  0  0  0  0  0  0  0999 V2000
    6.5576   -1.6752    1.0378 C   0  0  0  0  0  0  0  0  0  0  0  0
    5.6135   -0.4811    0.9046 C   0  0  0  0  0  0  0  0  0  0  0  0
    4.3896   -0.5797    1.8329 C   0  0  0  0  0  0  0  0  0  0  0  0
    3.4651   -1.7831    1.5695 C   0  0  0  0  0  0  0  0  0  0  0  0
    2.9214   -1.9431    0.1288 C   0  0  0  0  0  0  0  0  0  0  0  0
    1.8822   -0.8960   -0.3941 C   0  0  0  0  0  0  0  0  0  0  0  0
    2.5694    0.3587   -0.9972 C   0  0  0  0  0  0  0  0  0  0  0  0
    1.5164    1.3570   -1.5375 C   0  0  0  0  0  0  0  0  0  0  0  0
    0.0704    0.8006   -1.3940 C   0  0  0  0  0  0  0  0  0  0  0  0
   -0.8732    1.7838   -1.9857 N   0  0  0  0  0  0  0  0  0  0  0  0
   -2.3158    1.5252   -1.8023 C   0  0  0  0  0  0  0  0  0  0  0  0
   -2.8423    2.0690   -0.4926 C   0  0  0  0  0  0  0  0  0  0  0  0
   -2.5855    3.2660   -0.1888 O   0  0  0  0  0  0  0  0  0  0  0  0
   -3.6575    1.2777    0.3979 N   0  0  0  0  0  0  0  0  0  0  0  0
   -3.9877    1.7328    1.7398 C   0  0  0  0  0  0  0  0  0  0  0  0
   -4.9163    0.6768    2.3238 C   0  0  0  0  0  0  0  0  0  0  0  0
   -4.7418   -0.5571    1.4445 C   0  0  0  0  0  0  0  0  0  0  0  0
   -4.2111   -0.0407    0.1050 C   0  0  1  0  0  0  0  0  0  0  0  0
   -5.3816    0.0784   -0.9874 B   0  0  0  0  0  0  0  0  0  0  0  0
   -6.5154    0.9701   -0.7537 O   0  0  0  0  0  0  0  0  0  0  0  0
   -5.3301   -0.7264   -2.2052 O   0  0  0  0  0  0  0  0  0  0  0  0
    0.0290   -0.5555   -2.1479 C   0  0  0  0  0  0  0  0  0  0  0  0
    1.0542   -1.5480   -1.5435 C   0  0  0  0  0  0  0  0  0  0  0  0
   -0.1884    0.5308    0.1152 C   0  0  0  0  0  0  0  0  0  0  0  0
    0.8836   -0.4242    0.7019 C   0  0  0  0  0  0  0  0  0  0  0  0
    6.8411   -1.8303    2.1005 H   0  0  0  0  0  0  0  0  0  0  0  0
    6.0817   -2.5965    0.6424 H   0  0  0  0  0  0  0  0  0  0  0  0
    7.4799   -1.4838    0.4499 H   0  0  0  0  0  0  0  0  0  0  0  0
    6.1770    0.4384    1.1737 H   0  0  0  0  0  0  0  0  0  0  0  0
    5.3020   -0.3699   -0.1538 H   0  0  0  0  0  0  0  0  0  0  0  0
    4.7517   -0.6499    2.8819 H   0  0  0  0  0  0  0  0  0  0  0  0
    3.8083    0.3615    1.7868 H   0  0  0  0  0  0  0  0  0  0  0  0
    2.6212   -1.7525    2.2899 H   0  0  0  0  0  0  0  0  0  0  0  0
    4.0253   -2.7083    1.8249 H   0  0  0  0  0  0  0  0  0  0  0  0
    2.4349   -2.9436    0.1167 H   0  0  0  0  0  0  0  0  0  0  0  0
    3.7647   -2.0308   -0.5881 H   0  0  0  0  0  0  0  0  0  0  0  0
    3.2499    0.0564   -1.8240 H   0  0  0  0  0  0  0  0  0  0  0  0
    3.1874    0.8802   -0.2441 H   0  0  0  0  0  0  0  0  0  0  0  0
    1.6046    2.3176   -0.9823 H   0  0  0  0  0  0  0  0  0  0  0  0
    1.7296    1.5782   -2.6069 H   0  0  0  0  0  0  0  0  0  0  0  0
   -0.6420    2.7528   -1.6629 H   0  0  0  0  0  0  0  0  0  0  0  0
   -2.5481    0.4568   -1.9331 H   0  0  0  0  0  0  0  0  0  0  0  0
   -2.8620    2.0457   -2.6166 H   0  0  0  0  0  0  0  0  0  0  0  0
   -4.4969    2.7203    1.7013 H   0  0  0  0  0  0  0  0  0  0  0  0
   -3.0581    1.8095    2.3449 H   0  0  0  0  0  0  0  0  0  0  0  0
   -4.6669    0.4576    3.3847 H   0  0  0  0  0  0  0  0  0  0  0  0
   -5.9694    1.0293    2.2605 H   0  0  0  0  0  0  0  0  0  0  0  0
   -3.9767   -1.2198    1.9068 H   0  0  0  0  0  0  0  0  0  0  0  0
   -5.6907   -1.1328    1.3591 H   0  0  0  0  0  0  0  0  0  0  0  0
   -3.4223   -0.7330   -0.2576 H   0  0  0  0  0  0  0  0  0  0  0  0
   -6.2387    1.8352   -1.1487 H   0  0  0  0  0  0  0  0  0  0  0  0
   -4.8583   -0.1563   -2.8634 H   0  0  0  0  0  0  0  0  0  0  0  0
   -0.9757   -1.0208   -2.0878 H   0  0  0  0  0  0  0  0  0  0  0  0
    0.2522   -0.3923   -3.2254 H   0  0  0  0  0  0  0  0  0  0  0  0
    1.7363   -1.9058   -2.3468 H   0  0  0  0  0  0  0  0  0  0  0  0
    0.5104   -2.4389   -1.1564 H   0  0  0  0  0  0  0  0  0  0  0  0
   -0.1878    1.4906    0.6772 H   0  0  0  0  0  0  0  0  0  0  0  0
   -1.1807    0.0564    0.2542 H   0  0  0  0  0  0  0  0  0  0  0  0
    0.3859   -1.3066    1.1620 H   0  0  0  0  0  0  0  0  0  0  0  0
    1.4245    0.1143    1.5087 H   0  0  0  0  0  0  0  0  0  0  0  0
  1  2  1  0
  2  3  1  0
  3  4  1  0
  4  5  1  0
  5  6  1  0
  6  7  1  0
  7  8  1  0
  8  9  1  0
  9 10  1  0
 10 11  1  0
 11 12  1  0
 12 13  2  0
 12 14  1  0
 14 15  1  0
 15 16  1  0
 16 17  1  0
 17 18  1  0
 18 19  1  0
 19 20  1  0
 19 21  1  0
  9 22  1  0
 22 23  1  0
  9 24  1  0
 24 25  1  0
 23  6  1  0
 25  6  1  0
 18 14  1  0
  1 26  1  0
  1 27  1  0
  1 28  1  0
  2 29  1  0
  2 30  1  0
  3 31  1  0
  3 32  1  0
  4 33  1  0
  4 34  1  0
  5 35  1  0
  5 36  1  0
  7 37  1  0
  7 38  1  0
  8 39  1  0
  8 40  1  0
 10 41  1  0
 11 42  1  0
 11 43  1  0
 15 44  1  0
 15 45  1  0
 16 46  1  0
 16 47  1  0
 17 48  1  0
 17 49  1  0
 18 50  1  6
 20 51  1  0
 21 52  1  0
 22 53  1  0
 22 54  1  0
 23 55  1  0
 23 56  1  0
 24 57  1  0
 24 58  1  0
 25 59  1  0
 25 60  1  0
M  END
$$$$
