
     RDKit          3D

 46 48  0  0  0  0  0  0  0  0999 V2000
   -5.2199    2.0014    2.9553 N   0  0  0  0  0  0  0  0  0  0  0  0
   -4.7764    1.8027    1.9051 C   0  0  0  0  0  0  0  0  0  0  0  0
   -4.2113    1.5491    0.5686 C   0  0  2  0  0  0  0  0  0  0  0  0
   -5.3130    1.4902   -0.4870 C   0  0  0  0  0  0  0  0  0  0  0  0
   -5.5992    0.0074   -0.6916 C   0  0  0  0  0  0  0  0  0  0  0  0
   -4.3321   -0.7194   -0.2574 C   0  0  0  0  0  0  0  0  0  0  0  0
   -3.5734    0.2391    0.5349 N   0  0  0  0  0  0  0  0  0  0  0  0
   -2.3232   -0.0284    1.2101 C   0  0  0  0  0  0  0  0  0  0  0  0
   -1.9235    0.7807    2.0918 O   0  0  0  0  0  0  0  0  0  0  0  0
   -1.4160   -1.1920    0.8611 C   0  0  1  0  0  0  0  0  0  0  0  0
   -2.1367   -2.4666    0.9425 N   0  0  0  0  0  0  0  0  0  0  0  0
   -0.7337   -1.0038   -0.5131 C   0  0  0  0  0  0  0  0  0  0  0  0
    0.2221    0.1637   -0.5081 C   0  0  0  0  0  0  0  0  0  0  0  0
   -0.2495    1.3131   -0.7300 O   0  0  0  0  0  0  0  0  0  0  0  0
    1.6391    0.0114   -0.2523 N   0  0  0  0  0  0  0  0  0  0  0  0
    2.1980   -1.2814    0.1843 C   0  0  0  0  0  0  0  0  0  0  0  0
    3.4486   -1.0850    1.0386 C   0  0  0  0  0  0  0  0  0  0  0  0
    4.4430   -0.2389    0.3060 C   0  0  0  0  0  0  0  0  0  0  0  0
    5.8202   -0.4771    0.4387 C   0  0  0  0  0  0  0  0  0  0  0  0
    6.7407    0.3405   -0.2219 C   0  0  0  0  0  0  0  0  0  0  0  0
    6.2933    1.4076   -1.0039 C   0  0  0  0  0  0  0  0  0  0  0  0
    4.9242    1.6605   -1.1265 C   0  0  0  0  0  0  0  0  0  0  0  0
    3.9900    0.8354   -0.4795 C   0  0  0  0  0  0  0  0  0  0  0  0
    2.5171    1.1549   -0.5750 C   0  0  0  0  0  0  0  0  0  0  0  0
   -3.4777    2.3453    0.3154 H   0  0  0  0  0  0  0  0  0  0  0  0
   -4.9283    1.9187   -1.4389 H   0  0  0  0  0  0  0  0  0  0  0  0
   -6.2321    2.0469   -0.1967 H   0  0  0  0  0  0  0  0  0  0  0  0
   -5.8539   -0.2135   -1.7510 H   0  0  0  0  0  0  0  0  0  0  0  0
   -6.4479   -0.2976   -0.0403 H   0  0  0  0  0  0  0  0  0  0  0  0
   -4.5986   -1.6059    0.3566 H   0  0  0  0  0  0  0  0  0  0  0  0
   -3.7537   -1.0239   -1.1529 H   0  0  0  0  0  0  0  0  0  0  0  0
   -0.6131   -1.2169    1.6337 H   0  0  0  0  0  0  0  0  0  0  0  0
   -1.4522   -3.2165    1.1949 H   0  0  0  0  0  0  0  0  0  0  0  0
   -2.5127   -2.7316    0.0038 H   0  0  0  0  0  0  0  0  0  0  0  0
   -0.2012   -1.9332   -0.8043 H   0  0  0  0  0  0  0  0  0  0  0  0
   -1.4956   -0.8326   -1.3008 H   0  0  0  0  0  0  0  0  0  0  0  0
    1.4685   -1.8413    0.8035 H   0  0  0  0  0  0  0  0  0  0  0  0
    2.4426   -1.8953   -0.7097 H   0  0  0  0  0  0  0  0  0  0  0  0
    3.8800   -2.0810    1.2803 H   0  0  0  0  0  0  0  0  0  0  0  0
    3.1753   -0.5800    1.9903 H   0  0  0  0  0  0  0  0  0  0  0  0
    6.1803   -1.2931    1.0529 H   0  0  0  0  0  0  0  0  0  0  0  0
    7.8017    0.1514   -0.1215 H   0  0  0  0  0  0  0  0  0  0  0  0
    7.0081    2.0449   -1.5083 H   0  0  0  0  0  0  0  0  0  0  0  0
    4.5917    2.5019   -1.7220 H   0  0  0  0  0  0  0  0  0  0  0  0
    2.2942    1.9912    0.1218 H   0  0  0  0  0  0  0  0  0  0  0  0
    2.2959    1.4968   -1.6104 H   0  0  0  0  0  0  0  0  0  0  0  0
  1  2  3  0
  2  3  1  0
  3  4  1  0
  4  5  1  0
  5  6  1  0
  6  7  1  0
  7  8  1  0
  8  9  2  0
  8 10  1  0
 10 11  1  0
 10 12  1  0
 12 13  1  0
 13 14  2  0
 13 15  1  0
 15 16  1  0
 16 17  1  0
 17 18  1  0
 18 19  2  0
 19 20  1  0
 20 21  2  0
 21 22  1  0
 22 23  2  0
 23 24  1  0
  7  3  1  0
 24 15  1  0
 23 18  1  0
  3 25  1  6
  4 26  1  0
  4 27  1  0
  5 28  1  0
  5 29  1  0
  6 30  1  0
  6 31  1  0
 10 32  1  1
 11 33  1  0
 11 34  1  0
 12 35  1  0
 12 36  1  0
 16 37  1  0
 16 38  1  0
 17 39  1  0
 17 40  1  0
 19 41  1  0
 20 42  1  0
 21 43  1  0
 22 44  1  0
 24 45  1  0
 24 46  1  0
M  END
$$$$
