
     RDKit          3D

 62 65  0  0  0  0  0  0  0  0999 V2000
    8.2024    0.6168    1.1869 C   0  0  0  0  0  0  0  0  0  0  0  0
    8.1073   -0.7886    0.9785 O   0  0  0  0  0  0  0  0  0  0  0  0
    7.0060   -1.4322    0.3939 C   0  0  0  0  0  0  0  0  0  0  0  0
    7.0502   -2.8227    0.2545 C   0  0  0  0  0  0  0  0  0  0  0  0
    5.9831   -3.5099   -0.3243 C   0  0  0  0  0  0  0  0  0  0  0  0
    4.8574   -2.8137   -0.7681 C   0  0  0  0  0  0  0  0  0  0  0  0
    4.7828   -1.4151   -0.6348 C   0  0  0  0  0  0  0  0  0  0  0  0
    3.5754   -0.6900   -1.1123 C   0  0  0  0  0  0  0  0  0  0  0  0
    2.7642   -1.2791   -1.8791 O   0  0  0  0  0  0  0  0  0  0  0  0
    3.3120    0.7466   -0.7320 C   0  0  0  0  0  0  0  0  0  0  0  0
    1.9056    1.1121   -0.9737 N   0  0  0  0  0  0  0  0  0  0  0  0
    1.5782    1.7804   -2.1326 C   0  0  0  0  0  0  0  0  0  0  0  0
    0.2851    2.1082   -2.4101 N   0  0  0  0  0  0  0  0  0  0  0  0
   -0.6755    1.7560   -1.5277 C   0  0  0  0  0  0  0  0  0  0  0  0
   -2.0279    1.9662   -1.6028 C   0  0  0  0  0  0  0  0  0  0  0  0
   -2.7486    2.6579   -2.6384 C   0  0  0  0  0  0  0  0  0  0  0  0
   -3.3294    3.2138   -3.4704 N   0  0  0  0  0  0  0  0  0  0  0  0
   -2.5435    1.3964   -0.4474 C   0  0  0  0  0  0  0  0  0  0  0  0
   -3.9357    1.3968   -0.0986 N   0  0  0  0  0  0  0  0  0  0  0  0
   -4.4056    2.0777    1.1077 C   0  0  0  0  0  0  0  0  0  0  0  0
   -5.6759    2.8715    0.7825 C   0  0  0  0  0  0  0  0  0  0  0  0
   -6.6783    2.0256    0.1169 N   0  0  0  0  0  0  0  0  0  0  0  0
   -6.1502    1.4674   -1.1372 C   0  0  0  0  0  0  0  0  0  0  0  0
   -4.8962    0.6230   -0.8855 C   0  0  0  0  0  0  0  0  0  0  0  0
   -1.5583    0.8356    0.3103 N   0  0  0  0  0  0  0  0  0  0  0  0
   -1.7563    0.0983    1.5678 C   0  0  0  0  0  0  0  0  0  0  0  0
   -2.7046   -1.0610    1.3786 C   0  0  0  0  0  0  0  0  0  0  0  0
   -2.4250   -2.1662    0.6544 C   0  0  0  0  0  0  0  0  0  0  0  0
   -1.0999   -2.3506   -0.0451 C   0  0  0  0  0  0  0  0  0  0  0  0
   -3.4736   -3.2437    0.5548 C   0  0  0  0  0  0  0  0  0  0  0  0
   -0.4057    1.0820   -0.3705 C   0  0  0  0  0  0  0  0  0  0  0  0
    0.9242    0.7480   -0.0774 C   0  0  0  0  0  0  0  0  0  0  0  0
    1.2243    0.1290    0.9780 O   0  0  0  0  0  0  0  0  0  0  0  0
    5.8694   -0.7297   -0.0542 C   0  0  0  0  0  0  0  0  0  0  0  0
    8.1521    1.1514    0.2148 H   0  0  0  0  0  0  0  0  0  0  0  0
    9.1748    0.8468    1.6684 H   0  0  0  0  0  0  0  0  0  0  0  0
    7.3847    0.9600    1.8555 H   0  0  0  0  0  0  0  0  0  0  0  0
    7.9182   -3.3729    0.5954 H   0  0  0  0  0  0  0  0  0  0  0  0
    6.0278   -4.5864   -0.4285 H   0  0  0  0  0  0  0  0  0  0  0  0
    4.0410   -3.3725   -1.2087 H   0  0  0  0  0  0  0  0  0  0  0  0
    3.5562    0.9040    0.3413 H   0  0  0  0  0  0  0  0  0  0  0  0
    3.9954    1.4027   -1.3147 H   0  0  0  0  0  0  0  0  0  0  0  0
    2.3464    2.0526   -2.8458 H   0  0  0  0  0  0  0  0  0  0  0  0
   -4.6301    1.3261    1.8941 H   0  0  0  0  0  0  0  0  0  0  0  0
   -3.6287    2.7737    1.4934 H   0  0  0  0  0  0  0  0  0  0  0  0
   -6.1053    3.2769    1.7238 H   0  0  0  0  0  0  0  0  0  0  0  0
   -5.4210    3.7360    0.1303 H   0  0  0  0  0  0  0  0  0  0  0  0
   -6.9379    1.2380    0.7570 H   0  0  0  0  0  0  0  0  0  0  0  0
   -6.9289    0.8333   -1.6129 H   0  0  0  0  0  0  0  0  0  0  0  0
   -5.9114    2.2921   -1.8445 H   0  0  0  0  0  0  0  0  0  0  0  0
   -4.4563    0.3156   -1.8594 H   0  0  0  0  0  0  0  0  0  0  0  0
   -5.1717   -0.2959   -0.3250 H   0  0  0  0  0  0  0  0  0  0  0  0
   -0.8129   -0.2787    1.9963 H   0  0  0  0  0  0  0  0  0  0  0  0
   -2.1794    0.7911    2.3245 H   0  0  0  0  0  0  0  0  0  0  0  0
   -3.6706   -0.9905    1.8720 H   0  0  0  0  0  0  0  0  0  0  0  0
   -1.0225   -3.3556   -0.5090 H   0  0  0  0  0  0  0  0  0  0  0  0
   -0.2655   -2.2503    0.6796 H   0  0  0  0  0  0  0  0  0  0  0  0
   -0.9901   -1.5990   -0.8525 H   0  0  0  0  0  0  0  0  0  0  0  0
   -3.7129   -3.6296    1.5683 H   0  0  0  0  0  0  0  0  0  0  0  0
   -3.1315   -4.0945   -0.0703 H   0  0  0  0  0  0  0  0  0  0  0  0
   -4.3963   -2.8275    0.0976 H   0  0  0  0  0  0  0  0  0  0  0  0
    5.8392    0.3460    0.0373 H   0  0  0  0  0  0  0  0  0  0  0  0
  1  2  1  0
  2  3  1  0
  3  4  2  0
  4  5  1  0
  5  6  2  0
  6  7  1  0
  7  8  1  0
  8  9  2  0
  8 10  1  0
 10 11  1  0
 11 12  1  0
 12 13  2  0
 13 14  1  0
 14 15  1  0
 15 16  1  0
 16 17  3  0
 15 18  2  0
 18 19  1  0
 19 20  1  0
 20 21  1  0
 21 22  1  0
 22 23  1  0
 23 24  1  0
 18 25  1  0
 25 26  1  0
 26 27  1  0
 27 28  2  3
 28 29  1  0
 28 30  1  0
 25 31  1  0
 31 32  1  0
 32 33  2  0
  7 34  2  0
 34  3  1  0
 32 11  1  0
 31 14  2  0
 24 19  1  0
  1 35  1  0
  1 36  1  0
  1 37  1  0
  4 38  1  0
  5 39  1  0
  6 40  1  0
 10 41  1  0
 10 42  1  0
 12 43  1  0
 20 44  1  0
 20 45  1  0
 21 46  1  0
 21 47  1  0
 22 48  1  0
 23 49  1  0
 23 50  1  0
 24 51  1  0
 24 52  1  0
 26 53  1  0
 26 54  1  0
 27 55  1  0
 29 56  1  0
 29 57  1  0
 29 58  1  0
 30 59  1  0
 30 60  1  0
 30 61  1  0
 34 62  1  0
M  END
$$$$
