
     RDKit          3D

 55 56  0  0  0  0  0  0  0  0999 V2000
   -1.5299   -0.3610    2.3617 N   0  0  0  0  0  0  0  0  0  0  0  0
   -0.8517    0.1632    1.1728 C   0  0  1  0  0  0  0  0  0  0  0  0
    0.6652   -0.1328    1.2347 C   0  0  0  0  0  0  0  0  0  0  0  0
    1.2921    0.1378   -0.0590 N   0  0  0  0  0  0  0  0  0  0  0  0
    0.6649    0.1946   -1.2591 C   0  0  0  0  0  0  0  0  0  0  0  0
    1.5113    0.3595   -2.3099 N   0  0  0  0  0  0  0  0  0  0  0  0
    2.7181    0.3692   -1.7099 C   0  0  0  0  0  0  0  0  0  0  0  0
    3.9695    0.4839   -2.3015 C   0  0  0  0  0  0  0  0  0  0  0  0
    5.0688    0.4452   -1.4908 N   0  0  0  0  0  0  0  0  0  0  0  0
    4.9725    0.2971   -0.1281 C   0  0  0  0  0  0  0  0  0  0  0  0
    6.2146    0.2574    0.7119 C   0  0  0  0  0  0  0  0  0  0  0  0
    7.3414    0.3988   -0.0790 F   0  0  0  0  0  0  0  0  0  0  0  0
    6.1843    1.2864    1.6354 F   0  0  0  0  0  0  0  0  0  0  0  0
    6.2852   -0.9516    1.3795 F   0  0  0  0  0  0  0  0  0  0  0  0
    3.7029    0.1791    0.4797 C   0  0  0  0  0  0  0  0  0  0  0  0
    2.5943    0.2272   -0.3617 C   0  0  0  0  0  0  0  0  0  0  0  0
   -0.8271    0.1664   -1.3884 C   0  0  0  0  0  0  0  0  0  0  0  0
   -1.4696   -0.4394   -0.1200 C   0  0  2  0  0  0  0  0  0  0  0  0
   -2.9864   -0.3070   -0.1609 C   0  0  0  0  0  0  0  0  0  0  0  0
   -3.7762   -1.4698   -0.2479 C   0  0  0  0  0  0  0  0  0  0  0  0
   -5.1708   -1.3838   -0.2866 C   0  0  0  0  0  0  0  0  0  0  0  0
   -5.9152   -2.5143   -0.3689 F   0  0  0  0  0  0  0  0  0  0  0  0
   -5.7966   -0.1364   -0.2409 C   0  0  0  0  0  0  0  0  0  0  0  0
   -7.1495   -0.0520   -0.2786 F   0  0  0  0  0  0  0  0  0  0  0  0
   -5.0284    1.0262   -0.1573 C   0  0  0  0  0  0  0  0  0  0  0  0
   -3.6323    0.9497   -0.1180 C   0  0  0  0  0  0  0  0  0  0  0  0
   -2.9236    2.1035   -0.0407 F   0  0  0  0  0  0  0  0  0  0  0  0
    0.7271   -0.1655   -1.5499 O   0  0  0  0  0  0  0  0  0  0  0  0
    0.4653   -0.0353   -0.3242 C   0  0  0  0  0  0  0  0  0  0  0  0
    1.4966   -0.0485    0.6102 O   0  0  0  0  0  0  0  0  0  0  0  0
   -0.9542    0.0733    0.1299 C   0  0  0  0  0  0  0  0  0  0  0  0
   -1.5030   -1.1915    0.2256 F   0  0  0  0  0  0  0  0  0  0  0  0
   -1.6846    0.8205   -0.7764 F   0  0  0  0  0  0  0  0  0  0  0  0
   -1.0091    0.6879    1.3675 F   0  0  0  0  0  0  0  0  0  0  0  0
    0.7195   -0.1715   -1.5528 O   0  0  0  0  0  0  0  0  0  0  0  0
    0.4637   -0.0346   -0.3265 C   0  0  0  0  0  0  0  0  0  0  0  0
    1.5002   -0.0347    0.6021 O   0  0  0  0  0  0  0  0  0  0  0  0
   -0.9539    0.0680    0.1348 C   0  0  0  0  0  0  0  0  0  0  0  0
   -1.4935   -1.1996    0.2438 F   0  0  0  0  0  0  0  0  0  0  0  0
   -1.6946    0.8029   -0.7733 F   0  0  0  0  0  0  0  0  0  0  0  0
   -1.0060    0.6923    1.3676 F   0  0  0  0  0  0  0  0  0  0  0  0
   -1.1111    0.0841    3.2106 H   0  0  0  0  0  0  0  0  0  0  0  0
   -1.3618   -1.3914    2.4317 H   0  0  0  0  0  0  0  0  0  0  0  0
   -0.9758    1.2675    1.1568 H   0  0  0  0  0  0  0  0  0  0  0  0
    0.8367   -1.1998    1.4951 H   0  0  0  0  0  0  0  0  0  0  0  0
    1.1340    0.5007    2.0183 H   0  0  0  0  0  0  0  0  0  0  0  0
    4.0773    0.5958   -3.3720 H   0  0  0  0  0  0  0  0  0  0  0  0
    3.5940    0.0580    1.5501 H   0  0  0  0  0  0  0  0  0  0  0  0
   -1.1741    1.2072   -1.5527 H   0  0  0  0  0  0  0  0  0  0  0  0
   -1.1094   -0.4402   -2.2759 H   0  0  0  0  0  0  0  0  0  0  0  0
   -1.2081   -1.5230   -0.1219 H   0  0  0  0  0  0  0  0  0  0  0  0
   -3.3131   -2.4481   -0.2848 H   0  0  0  0  0  0  0  0  0  0  0  0
   -5.5163    1.9920   -0.1236 H   0  0  0  0  0  0  0  0  0  0  0  0
    2.4620   -0.1408    0.3173 H   0  0  0  0  0  0  0  0  0  0  0  0
    2.4645   -0.1228    0.3044 H   0  0  0  0  0  0  0  0  0  0  0  0
  1  2  1  0
  2  3  1  0
  3  4  1  0
  4  5  1  0
  5  6  2  0
  6  7  1  0
  7  8  2  0
  8  9  1  0
  9 10  2  0
 10 11  1  0
 11 12  1  0
 11 13  1  0
 11 14  1  0
 10 15  1  0
 15 16  2  0
  5 17  1  0
 17 18  1  0
 18 19  1  0
 19 20  2  0
 20 21  1  0
 21 22  1  0
 21 23  2  0
 23 24  1  0
 23 25  1  0
 25 26  2  0
 26 27  1  0
 28 29  2  0
 29 30  1  0
 29 31  1  0
 31 32  1  0
 31 33  1  0
 31 34  1  0
 35 36  2  0
 36 37  1  0
 36 38  1  0
 38 39  1  0
 38 40  1  0
 38 41  1  0
 18  2  1  0
 26 19  1  0
 16  4  1  0
 16  7  1  0
  1 42  1  0
  1 43  1  0
  2 44  1  6
  3 45  1  0
  3 46  1  0
  8 47  1  0
 15 48  1  0
 17 49  1  0
 17 50  1  0
 18 51  1  1
 20 52  1  0
 25 53  1  0
 30 54  1  0
 37 55  1  0
M  END
$$$$
