
     RDKit          3D

 29 30  0  0  0  0  0  0  0  0999 V2000
   -2.2628   -1.4533   -0.2135 C   0  0  0  0  0  0  0  0  0  0  0  0
   -2.0280    0.0656   -0.3310 C   0  0  0  0  0  0  0  0  0  0  0  0
   -1.6980    0.4463   -1.7880 C   0  0  0  0  0  0  0  0  0  0  0  0
   -3.3252    0.7929    0.0804 C   0  0  0  0  0  0  0  0  0  0  0  0
   -0.9362    0.4880    0.5698 N   0  0  0  0  0  0  0  0  0  0  0  0
    0.4589    0.1759    0.3798 C   0  0  0  0  0  0  0  0  0  0  0  0
    0.8129   -0.9403   -0.3195 N   0  0  0  0  0  0  0  0  0  0  0  0
    2.1157   -1.2796   -0.4412 C   0  0  0  0  0  0  0  0  0  0  0  0
    2.7263   -2.6106   -1.2595 S   0  0  0  0  0  0  0  0  0  0  0  0
    4.3071   -2.1626   -0.8339 C   0  0  0  0  0  0  0  0  0  0  0  0
    4.3177   -1.0285   -0.0910 N   0  0  0  0  0  0  0  0  0  0  0  0
    3.0943   -0.5486    0.1221 N   0  0  0  0  0  0  0  0  0  0  0  0
    2.8174    0.5783    0.8271 C   0  0  0  0  0  0  0  0  0  0  0  0
    3.7549    1.2606    1.3236 O   0  0  0  0  0  0  0  0  0  0  0  0
    1.4710    0.9814    0.9720 C   0  0  0  0  0  0  0  0  0  0  0  0
    1.1450    2.2037    1.6551 N   0  0  0  0  0  0  0  0  0  0  0  0
    1.7716    2.5419    2.6804 O   0  0  0  0  0  0  0  0  0  0  0  0
    0.2379    3.0814    1.1073 O   0  0  0  0  0  0  0  0  0  0  0  0
   -3.1739   -1.7522   -0.7757 H   0  0  0  0  0  0  0  0  0  0  0  0
   -1.4161   -2.0347   -0.6293 H   0  0  0  0  0  0  0  0  0  0  0  0
   -2.3971   -1.7399    0.8517 H   0  0  0  0  0  0  0  0  0  0  0  0
   -0.8188   -0.1156   -2.1645 H   0  0  0  0  0  0  0  0  0  0  0  0
   -2.5556    0.2162   -2.4568 H   0  0  0  0  0  0  0  0  0  0  0  0
   -1.4748    1.5325   -1.8604 H   0  0  0  0  0  0  0  0  0  0  0  0
   -3.1861    1.8942    0.0234 H   0  0  0  0  0  0  0  0  0  0  0  0
   -4.1690    0.5117   -0.5867 H   0  0  0  0  0  0  0  0  0  0  0  0
   -3.6038    0.5313    1.1242 H   0  0  0  0  0  0  0  0  0  0  0  0
   -1.1880    1.0653    1.4039 H   0  0  0  0  0  0  0  0  0  0  0  0
    5.2027   -2.7011   -1.1115 H   0  0  0  0  0  0  0  0  0  0  0  0
  1  2  1  0
  2  3  1  0
  2  4  1  0
  2  5  1  0
  5  6  1  0
  6  7  1  0
  7  8  2  0
  8  9  1  0
  9 10  1  0
 10 11  2  0
 11 12  1  0
 12 13  1  0
 13 14  2  0
 13 15  1  0
 15 16  1  0
 16 17  2  0
 16 18  1  0
 15  6  2  0
 12  8  1  0
  1 19  1  0
  1 20  1  0
  1 21  1  0
  3 22  1  0
  3 23  1  0
  3 24  1  0
  4 25  1  0
  4 26  1  0
  4 27  1  0
  5 28  1  0
 10 29  1  0
M  CHG  2  16   1  18  -1
M  END
$$$$
