
     RDKit          3D

 55 57  0  0  0  0  0  0  0  0999 V2000
   -4.9410    1.3994    2.6733 C   0  0  0  0  0  0  0  0  0  0  0  0
   -4.6961    1.1267    1.2237 C   0  0  0  0  0  0  0  0  0  0  0  0
   -5.3715    1.7478    0.2355 N   0  0  0  0  0  0  0  0  0  0  0  0
   -4.9293    1.2528   -0.9117 N   0  0  0  0  0  0  0  0  0  0  0  0
   -3.9866    0.3449   -0.5997 C   0  0  0  0  0  0  0  0  0  0  0  0
   -3.7901    0.2553    0.7267 N   0  0  0  0  0  0  0  0  0  0  0  0
   -2.8600   -0.6600    1.4173 C   0  0  2  0  0  0  0  0  0  0  0  0
   -1.8371    0.1346    2.2476 C   0  0  0  0  0  0  0  0  0  0  0  0
   -0.9940    1.0265    1.3322 C   0  0  0  0  0  0  0  0  0  0  0  0
   -0.4847    0.2843    0.1686 N   0  0  0  0  0  0  0  0  0  0  0  0
    0.3143    1.0008   -0.7971 C   0  0  0  0  0  0  0  0  0  0  0  0
    0.1158    2.2356   -0.9651 O   0  0  0  0  0  0  0  0  0  0  0  0
    1.3473    0.3019   -1.6513 C   0  0  0  0  0  0  0  0  0  0  0  0
    2.5803    1.1828   -1.9618 C   0  0  2  0  0  0  0  0  0  0  0  0
    3.4341    0.5106   -2.9448 N   0  0  0  0  0  0  0  0  0  0  0  0
    3.3952    1.5373   -0.6920 C   0  0  0  0  0  0  0  0  0  0  0  0
    4.0104    0.3315   -0.0145 C   0  0  0  0  0  0  0  0  0  0  0  0
    5.2169   -0.2054   -0.4978 C   0  0  0  0  0  0  0  0  0  0  0  0
    5.7828   -1.3330    0.1047 C   0  0  0  0  0  0  0  0  0  0  0  0
    6.9449   -1.8428   -0.3734 F   0  0  0  0  0  0  0  0  0  0  0  0
    5.1519   -1.9336    1.1976 C   0  0  0  0  0  0  0  0  0  0  0  0
    5.6992   -3.0278    1.7823 F   0  0  0  0  0  0  0  0  0  0  0  0
    3.9579   -1.4031    1.6921 C   0  0  0  0  0  0  0  0  0  0  0  0
    3.3878   -0.2745    1.0946 C   0  0  0  0  0  0  0  0  0  0  0  0
    2.2364    0.2275    1.6047 F   0  0  0  0  0  0  0  0  0  0  0  0
   -0.6581   -1.1768    0.0946 C   0  0  0  0  0  0  0  0  0  0  0  0
   -2.1184   -1.6114    0.4104 C   0  0  2  0  0  0  0  0  0  0  0  0
   -2.9325   -1.8459   -0.8866 C   0  0  0  0  0  0  0  0  0  0  0  0
   -3.2888   -0.5295   -1.5818 C   0  0  0  0  0  0  0  0  0  0  0  0
    0.6878    0.0000    0.0000 Cl  0  0  0  0  0  0  0  0  0  0  0  0
   -4.7902    0.4784    3.2731 H   0  0  0  0  0  0  0  0  0  0  0  0
   -4.2519    2.1952    3.0238 H   0  0  0  0  0  0  0  0  0  0  0  0
   -5.9863    1.7436    2.8191 H   0  0  0  0  0  0  0  0  0  0  0  0
   -3.4557   -1.2920    2.1123 H   0  0  0  0  0  0  0  0  0  0  0  0
   -2.3358    0.7570    3.0160 H   0  0  0  0  0  0  0  0  0  0  0  0
   -1.1729   -0.5725    2.7917 H   0  0  0  0  0  0  0  0  0  0  0  0
   -0.1431    1.4447    1.9114 H   0  0  0  0  0  0  0  0  0  0  0  0
   -1.6215    1.8754    0.9830 H   0  0  0  0  0  0  0  0  0  0  0  0
    1.6938   -0.6309   -1.1603 H   0  0  0  0  0  0  0  0  0  0  0  0
    0.8516    0.0136   -2.6030 H   0  0  0  0  0  0  0  0  0  0  0  0
    2.2243    2.1378   -2.4122 H   0  0  0  0  0  0  0  0  0  0  0  0
    2.8818    0.3645   -3.8211 H   0  0  0  0  0  0  0  0  0  0  0  0
    4.2105    1.1614   -3.2062 H   0  0  0  0  0  0  0  0  0  0  0  0
    4.2060    2.2445   -0.9732 H   0  0  0  0  0  0  0  0  0  0  0  0
    2.7517    2.0943    0.0222 H   0  0  0  0  0  0  0  0  0  0  0  0
    5.7204    0.2507   -1.3409 H   0  0  0  0  0  0  0  0  0  0  0  0
    3.4733   -1.8661    2.5422 H   0  0  0  0  0  0  0  0  0  0  0  0
   -0.3636   -1.5674   -0.9016 H   0  0  0  0  0  0  0  0  0  0  0  0
    0.0301   -1.6445    0.8323 H   0  0  0  0  0  0  0  0  0  0  0  0
   -2.0389   -2.6071    0.9026 H   0  0  0  0  0  0  0  0  0  0  0  0
   -2.3707   -2.4983   -1.5898 H   0  0  0  0  0  0  0  0  0  0  0  0
   -3.8720   -2.3843   -0.6293 H   0  0  0  0  0  0  0  0  0  0  0  0
   -3.9554   -0.7339   -2.4467 H   0  0  0  0  0  0  0  0  0  0  0  0
   -2.3725   -0.0208   -1.9485 H   0  0  0  0  0  0  0  0  0  0  0  0
   -0.6878    0.0000    0.0000 H   0  0  0  0  0  0  0  0  0  0  0  0
  1  2  1  0
  2  3  2  0
  3  4  1  0
  4  5  2  0
  5  6  1  0
  6  7  1  0
  7  8  1  0
  8  9  1  0
  9 10  1  0
 10 11  1  0
 11 12  2  0
 11 13  1  0
 13 14  1  0
 14 15  1  0
 14 16  1  0
 16 17  1  0
 17 18  2  0
 18 19  1  0
 19 20  1  0
 19 21  2  0
 21 22  1  0
 21 23  1  0
 23 24  2  0
 24 25  1  0
 10 26  1  0
 26 27  1  0
 27 28  1  0
 28 29  1  0
  6  2  1  0
 27  7  1  0
 29  5  1  0
 24 17  1  0
  1 31  1  0
  1 32  1  0
  1 33  1  0
  7 34  1  1
  8 35  1  0
  8 36  1  0
  9 37  1  0
  9 38  1  0
 13 39  1  0
 13 40  1  0
 14 41  1  6
 15 42  1  0
 15 43  1  0
 16 44  1  0
 16 45  1  0
 18 46  1  0
 23 47  1  0
 26 48  1  0
 26 49  1  0
 27 50  1  1
 28 51  1  0
 28 52  1  0
 29 53  1  0
 29 54  1  0
 30 55  1  0
M  END
$$$$
