
     RDKit          3D

 61 62  0  0  0  0  0  0  0  0999 V2000
   -7.8406    1.0206    0.5736 C   0  0  0  0  0  0  0  0  0  0  0  0
   -6.8195   -0.1192    0.7683 C   0  0  0  0  0  0  0  0  0  0  0  0
   -6.9075   -1.0668   -0.4440 C   0  0  0  0  0  0  0  0  0  0  0  0
   -7.1709   -0.8742    2.0652 C   0  0  0  0  0  0  0  0  0  0  0  0
   -5.4658    0.4613    0.8658 N   0  0  0  0  0  0  0  0  0  0  0  0
   -4.2531   -0.2874    1.0433 C   0  0  0  0  0  0  0  0  0  0  0  0
   -4.2779   -1.5438    1.1472 O   0  0  0  0  0  0  0  0  0  0  0  0
   -3.0360    0.3995    1.1023 O   0  0  0  0  0  0  0  0  0  0  0  0
   -1.7745   -0.2548    1.2412 C   0  0  1  0  0  0  0  0  0  0  0  0
   -1.3757   -0.9874   -0.0372 C   0  0  0  0  0  0  0  0  0  0  0  0
    0.1571   -0.9246   -0.0894 C   0  0  1  0  0  0  0  0  0  0  0  0
    0.7279   -0.4274   -1.4184 C   0  0  0  0  0  0  0  0  0  0  0  0
    1.9741    0.3650   -1.0360 C   0  0  1  0  0  0  0  0  0  0  0  0
    2.3100    1.3637   -2.0677 N   0  0  0  0  0  0  0  0  0  0  0  0
    3.6713    1.9003   -1.9041 C   0  0  0  0  0  0  0  0  0  0  0  0
    4.7202    0.9112   -2.3554 C   0  0  0  0  0  0  0  0  0  0  0  0
    4.8374    0.6825   -3.5899 O   0  0  0  0  0  0  0  0  0  0  0  0
    5.5465    0.1871   -1.4220 N   0  0  0  0  0  0  0  0  0  0  0  0
    6.1959   -1.0616   -1.7832 C   0  0  0  0  0  0  0  0  0  0  0  0
    6.6712   -1.6736   -0.4736 C   0  0  0  0  0  0  0  0  0  0  0  0
    6.6993   -0.5291    0.5346 C   0  0  0  0  0  0  0  0  0  0  0  0
    5.7558    0.5400   -0.0232 C   0  0  1  0  0  0  0  0  0  0  0  0
    6.3534    1.8812    0.0936 C   0  0  0  0  0  0  0  0  0  0  0  0
    6.8219    2.9354    0.1848 N   0  0  0  0  0  0  0  0  0  0  0  0
    1.6063    1.0292    0.2915 C   0  0  0  0  0  0  0  0  0  0  0  0
    0.6030    0.0829    0.9659 C   0  0  1  0  0  0  0  0  0  0  0  0
   -0.6701    0.7632    1.4732 C   0  0  0  0  0  0  0  0  0  0  0  0
    0.6878    0.0000    0.0000 Cl  0  0  0  0  0  0  0  0  0  0  0  0
   -7.6152    1.5892   -0.3545 H   0  0  0  0  0  0  0  0  0  0  0  0
   -8.8747    0.6200    0.4957 H   0  0  0  0  0  0  0  0  0  0  0  0
   -7.8027    1.7263    1.4315 H   0  0  0  0  0  0  0  0  0  0  0  0
   -6.5879   -0.5391   -1.3683 H   0  0  0  0  0  0  0  0  0  0  0  0
   -7.9501   -1.4254   -0.5852 H   0  0  0  0  0  0  0  0  0  0  0  0
   -6.2627   -1.9591   -0.3113 H   0  0  0  0  0  0  0  0  0  0  0  0
   -6.5276   -1.7666    2.2043 H   0  0  0  0  0  0  0  0  0  0  0  0
   -8.2260   -1.2231    2.0408 H   0  0  0  0  0  0  0  0  0  0  0  0
   -7.0402   -0.2082    2.9451 H   0  0  0  0  0  0  0  0  0  0  0  0
   -5.3555    1.4991    0.7972 H   0  0  0  0  0  0  0  0  0  0  0  0
   -1.8001   -0.9658    2.0985 H   0  0  0  0  0  0  0  0  0  0  0  0
   -1.8416   -0.4891   -0.9155 H   0  0  0  0  0  0  0  0  0  0  0  0
   -1.7256   -2.0421   -0.0082 H   0  0  0  0  0  0  0  0  0  0  0  0
    0.5878   -1.9244    0.1477 H   0  0  0  0  0  0  0  0  0  0  0  0
    0.0107    0.2471   -1.9375 H   0  0  0  0  0  0  0  0  0  0  0  0
    0.9808   -1.2764   -2.0900 H   0  0  0  0  0  0  0  0  0  0  0  0
    2.8101   -0.3551   -0.8799 H   0  0  0  0  0  0  0  0  0  0  0  0
    2.2332    0.9256   -3.0166 H   0  0  0  0  0  0  0  0  0  0  0  0
    3.8332    2.2366   -0.8609 H   0  0  0  0  0  0  0  0  0  0  0  0
    3.7641    2.8112   -2.5329 H   0  0  0  0  0  0  0  0  0  0  0  0
    5.4774   -1.7431   -2.2893 H   0  0  0  0  0  0  0  0  0  0  0  0
    7.0567   -0.8525   -2.4545 H   0  0  0  0  0  0  0  0  0  0  0  0
    7.6729   -2.1425   -0.5858 H   0  0  0  0  0  0  0  0  0  0  0  0
    5.9428   -2.4443   -0.1373 H   0  0  0  0  0  0  0  0  0  0  0  0
    6.3656   -0.8740    1.5376 H   0  0  0  0  0  0  0  0  0  0  0  0
    7.7448   -0.1533    0.6175 H   0  0  0  0  0  0  0  0  0  0  0  0
    4.7899    0.5084    0.5220 H   0  0  0  0  0  0  0  0  0  0  0  0
    2.5044    1.1625    0.9309 H   0  0  0  0  0  0  0  0  0  0  0  0
    1.1642    2.0317    0.1008 H   0  0  0  0  0  0  0  0  0  0  0  0
    1.0952   -0.4567    1.8073 H   0  0  0  0  0  0  0  0  0  0  0  0
   -0.8985    1.6835    0.8908 H   0  0  0  0  0  0  0  0  0  0  0  0
   -0.5849    1.0264    2.5498 H   0  0  0  0  0  0  0  0  0  0  0  0
   -0.6878    0.0000    0.0000 H   0  0  0  0  0  0  0  0  0  0  0  0
  1  2  1  0
  2  3  1  0
  2  4  1  0
  2  5  1  0
  5  6  1  0
  6  7  2  0
  6  8  1  0
  8  9  1  0
  9 10  1  0
 10 11  1  0
 11 12  1  0
 12 13  1  0
 13 14  1  0
 14 15  1  0
 15 16  1  0
 16 17  2  0
 16 18  1  0
 18 19  1  0
 19 20  1  0
 20 21  1  0
 21 22  1  0
 22 23  1  0
 23 24  3  0
 13 25  1  0
 25 26  1  0
 26 27  1  0
 27  9  1  0
 26 11  1  0
 22 18  1  0
  1 29  1  0
  1 30  1  0
  1 31  1  0
  3 32  1  0
  3 33  1  0
  3 34  1  0
  4 35  1  0
  4 36  1  0
  4 37  1  0
  5 38  1  0
  9 39  1  1
 10 40  1  0
 10 41  1  0
 11 42  1  1
 12 43  1  0
 12 44  1  0
 13 45  1  1
 14 46  1  0
 15 47  1  0
 15 48  1  0
 19 49  1  0
 19 50  1  0
 20 51  1  0
 20 52  1  0
 21 53  1  0
 21 54  1  0
 22 55  1  1
 25 56  1  0
 25 57  1  0
 26 58  1  1
 27 59  1  0
 27 60  1  0
 28 61  1  0
M  END
$$$$
