
     RDKit          3D

 91 91  0  0  0  0  0  0  0  0999 V2000
    8.7053   -1.8347   -3.2088 C   0  0  0  0  0  0  0  0  0  0  0  0
    7.4887   -0.9608   -3.4070 C   0  0  0  0  0  0  0  0  0  0  0  0
    7.5457    0.1769   -4.3936 C   0  0  0  0  0  0  0  0  0  0  0  0
    6.3340   -1.1732   -2.7372 C   0  0  0  0  0  0  0  0  0  0  0  0
    6.1378   -2.2315   -1.6770 C   0  0  0  0  0  0  0  0  0  0  0  0
    6.6004   -1.7459   -0.2956 C   0  0  0  0  0  0  0  0  0  0  0  0
    5.7712   -0.5811    0.1925 C   0  0  0  0  0  0  0  0  0  0  0  0
    6.2936    0.8227    0.0472 C   0  0  0  0  0  0  0  0  0  0  0  0
    4.5719   -0.8021    0.7460 C   0  0  0  0  0  0  0  0  0  0  0  0
    3.7788    0.2642    1.1791 O   0  0  0  0  0  0  0  0  0  0  0  0
    2.5832    0.0836    1.8798 C   0  0  0  0  0  0  0  0  0  0  0  0
    2.2468   -1.0596    2.2940 O   0  0  0  0  0  0  0  0  0  0  0  0
    1.7283    1.2776    2.1983 C   0  0  2  0  0  0  0  0  0  0  0  0
    1.9224    1.7262    3.6467 C   0  0  0  0  0  0  0  0  0  0  0  0
    0.7335    1.1587    4.4150 C   0  0  0  0  0  0  0  0  0  0  0  0
   -0.3565    0.9248    3.3765 C   0  0  0  0  0  0  0  0  0  0  0  0
    0.3177    0.9286    2.0867 N   0  0  0  0  0  0  0  0  0  0  0  0
   -0.3299    0.7205    0.8152 C   0  0  0  0  0  0  0  0  0  0  0  0
    0.1628    1.2498   -0.2186 O   0  0  0  0  0  0  0  0  0  0  0  0
   -1.5550   -0.1553    0.6576 C   0  0  2  0  0  0  0  0  0  0  0  0
   -2.8519    0.5258    1.1510 C   0  0  0  0  0  0  0  0  0  0  0  0
   -3.1372    1.9003    0.5116 C   0  0  0  0  0  0  0  0  0  0  0  0
   -3.2889    1.8862   -1.0229 C   0  0  0  0  0  0  0  0  0  0  0  0
   -4.4176    0.9768   -1.5334 C   0  0  0  0  0  0  0  0  0  0  0  0
   -5.7006    1.3258   -0.9246 N   0  0  0  0  0  0  0  0  0  0  0  0
   -6.4366    2.4996   -1.2858 C   0  0  0  0  0  0  0  0  0  0  0  0
   -6.0055    3.2601   -2.1947 O   0  0  0  0  0  0  0  0  0  0  0  0
   -7.6386    2.7788   -0.6184 O   0  0  0  0  0  0  0  0  0  0  0  0
   -8.4972    3.9057   -0.8502 C   0  0  0  0  0  0  0  0  0  0  0  0
   -9.6805    3.7839    0.1229 C   0  0  0  0  0  0  0  0  0  0  0  0
   -9.0357    3.8895   -2.2938 C   0  0  0  0  0  0  0  0  0  0  0  0
   -7.7520    5.2240   -0.5641 C   0  0  0  0  0  0  0  0  0  0  0  0
   -1.3485   -1.4370    1.3411 N   0  0  0  0  0  0  0  0  0  0  0  0
   -0.4019   -2.4063    0.8756 C   0  0  0  0  0  0  0  0  0  0  0  0
    0.2488   -2.1952   -0.1837 O   0  0  0  0  0  0  0  0  0  0  0  0
   -0.2224   -3.5881    1.6101 O   0  0  0  0  0  0  0  0  0  0  0  0
    0.6044   -4.7021    1.2399 C   0  0  0  0  0  0  0  0  0  0  0  0
    0.4637   -5.7585    2.3467 C   0  0  0  0  0  0  0  0  0  0  0  0
    2.0844   -4.2810    1.1421 C   0  0  0  0  0  0  0  0  0  0  0  0
    0.1225   -5.3088   -0.0919 C   0  0  0  0  0  0  0  0  0  0  0  0
    8.4675   -2.8847   -3.4793 H   0  0  0  0  0  0  0  0  0  0  0  0
    9.5501   -1.5059   -3.8495 H   0  0  0  0  0  0  0  0  0  0  0  0
    9.0484   -1.7899   -2.1560 H   0  0  0  0  0  0  0  0  0  0  0  0
    7.3424    1.1356   -3.8707 H   0  0  0  0  0  0  0  0  0  0  0  0
    6.7827    0.0272   -5.1867 H   0  0  0  0  0  0  0  0  0  0  0  0
    8.5408    0.2529   -4.8789 H   0  0  0  0  0  0  0  0  0  0  0  0
    5.4827   -0.5287   -2.9432 H   0  0  0  0  0  0  0  0  0  0  0  0
    6.6710   -3.1666   -1.9475 H   0  0  0  0  0  0  0  0  0  0  0  0
    5.0574   -2.4890   -1.6285 H   0  0  0  0  0  0  0  0  0  0  0  0
    7.6727   -1.4631   -0.3312 H   0  0  0  0  0  0  0  0  0  0  0  0
    6.5267   -2.5865    0.4290 H   0  0  0  0  0  0  0  0  0  0  0  0
    7.2848    0.8344   -0.4530 H   0  0  0  0  0  0  0  0  0  0  0  0
    6.3993    1.2919    1.0483 H   0  0  0  0  0  0  0  0  0  0  0  0
    5.5911    1.4243   -0.5676 H   0  0  0  0  0  0  0  0  0  0  0  0
    4.2136   -1.8196    0.8567 H   0  0  0  0  0  0  0  0  0  0  0  0
    1.9749    2.1158    1.5095 H   0  0  0  0  0  0  0  0  0  0  0  0
    1.8862    2.8369    3.6931 H   0  0  0  0  0  0  0  0  0  0  0  0
    2.8885    1.3883    4.0843 H   0  0  0  0  0  0  0  0  0  0  0  0
    0.3942    1.8570    5.2105 H   0  0  0  0  0  0  0  0  0  0  0  0
    1.0222    0.1893    4.8786 H   0  0  0  0  0  0  0  0  0  0  0  0
   -0.8571   -0.0469    3.5655 H   0  0  0  0  0  0  0  0  0  0  0  0
   -1.0949    1.7545    3.4112 H   0  0  0  0  0  0  0  0  0  0  0  0
   -1.6947   -0.3779   -0.4232 H   0  0  0  0  0  0  0  0  0  0  0  0
   -2.8170    0.6573    2.2507 H   0  0  0  0  0  0  0  0  0  0  0  0
   -3.7103   -0.1528    0.9618 H   0  0  0  0  0  0  0  0  0  0  0  0
   -2.3208    2.6052    0.7805 H   0  0  0  0  0  0  0  0  0  0  0  0
   -4.0660    2.3122    0.9627 H   0  0  0  0  0  0  0  0  0  0  0  0
   -3.4839    2.9261   -1.3611 H   0  0  0  0  0  0  0  0  0  0  0  0
   -2.3332    1.5800   -1.4971 H   0  0  0  0  0  0  0  0  0  0  0  0
   -4.1762   -0.0842   -1.3119 H   0  0  0  0  0  0  0  0  0  0  0  0
   -4.4945    1.0629   -2.6392 H   0  0  0  0  0  0  0  0  0  0  0  0
   -6.1170    0.6722   -0.2238 H   0  0  0  0  0  0  0  0  0  0  0  0
   -9.3173    3.7832    1.1734 H   0  0  0  0  0  0  0  0  0  0  0  0
  -10.2274    2.8325   -0.0530 H   0  0  0  0  0  0  0  0  0  0  0  0
  -10.3912    4.6292   -0.0047 H   0  0  0  0  0  0  0  0  0  0  0  0
   -8.2244    4.0588   -3.0309 H   0  0  0  0  0  0  0  0  0  0  0  0
   -9.5100    2.9092   -2.5149 H   0  0  0  0  0  0  0  0  0  0  0  0
   -9.7927    4.6906   -2.4370 H   0  0  0  0  0  0  0  0  0  0  0  0
   -7.2993    5.1971    0.4505 H   0  0  0  0  0  0  0  0  0  0  0  0
   -6.9425    5.4003   -1.3011 H   0  0  0  0  0  0  0  0  0  0  0  0
   -8.4501    6.0873   -0.6187 H   0  0  0  0  0  0  0  0  0  0  0  0
   -1.9301   -1.6856    2.1734 H   0  0  0  0  0  0  0  0  0  0  0  0
    1.0764   -6.6580    2.1211 H   0  0  0  0  0  0  0  0  0  0  0  0
    0.7954   -5.3409    3.3220 H   0  0  0  0  0  0  0  0  0  0  0  0
   -0.5978   -6.0709    2.4496 H   0  0  0  0  0  0  0  0  0  0  0  0
    2.4072   -3.7929    2.0860 H   0  0  0  0  0  0  0  0  0  0  0  0
    2.7314   -5.1681    0.9665 H   0  0  0  0  0  0  0  0  0  0  0  0
    2.2548   -3.5737    0.3048 H   0  0  0  0  0  0  0  0  0  0  0  0
    0.2879   -4.6096   -0.9372 H   0  0  0  0  0  0  0  0  0  0  0  0
   -0.9636   -5.5376   -0.0374 H   0  0  0  0  0  0  0  0  0  0  0  0
    0.6725   -6.2484   -0.3163 H   0  0  0  0  0  0  0  0  0  0  0  0
  1  2  1  0
  2  3  1  0
  2  4  2  3
  4  5  1  0
  5  6  1  0
  6  7  1  0
  7  8  1  0
  7  9  2  0
  9 10  1  0
 10 11  1  0
 11 12  2  0
 11 13  1  0
 13 14  1  0
 14 15  1  0
 15 16  1  0
 16 17  1  0
 17 18  1  0
 18 19  2  0
 18 20  1  0
 20 21  1  0
 21 22  1  0
 22 23  1  0
 23 24  1  0
 24 25  1  0
 25 26  1  0
 26 27  2  0
 26 28  1  0
 28 29  1  0
 29 30  1  0
 29 31  1  0
 29 32  1  0
 20 33  1  0
 33 34  1  0
 34 35  2  0
 34 36  1  0
 36 37  1  0
 37 38  1  0
 37 39  1  0
 37 40  1  0
 17 13  1  0
  1 41  1  0
  1 42  1  0
  1 43  1  0
  3 44  1  0
  3 45  1  0
  3 46  1  0
  4 47  1  0
  5 48  1  0
  5 49  1  0
  6 50  1  0
  6 51  1  0
  8 52  1  0
  8 53  1  0
  8 54  1  0
  9 55  1  0
 13 56  1  6
 14 57  1  0
 14 58  1  0
 15 59  1  0
 15 60  1  0
 16 61  1  0
 16 62  1  0
 20 63  1  6
 21 64  1  0
 21 65  1  0
 22 66  1  0
 22 67  1  0
 23 68  1  0
 23 69  1  0
 24 70  1  0
 24 71  1  0
 25 72  1  0
 30 73  1  0
 30 74  1  0
 30 75  1  0
 31 76  1  0
 31 77  1  0
 31 78  1  0
 32 79  1  0
 32 80  1  0
 32 81  1  0
 33 82  1  0
 38 83  1  0
 38 84  1  0
 38 85  1  0
 39 86  1  0
 39 87  1  0
 39 88  1  0
 40 89  1  0
 40 90  1  0
 40 91  1  0
M  END
$$$$
