
     RDKit          3D

 56 57  0  0  0  0  0  0  0  0999 V2000
   -5.4805   -3.5661   -1.0802 N   0  0  0  0  0  0  0  0  0  0  0  0
   -5.3314   -2.4323   -1.2581 C   0  0  0  0  0  0  0  0  0  0  0  0
   -5.1408   -0.9895   -1.4843 C   0  0  1  0  0  0  0  0  0  0  0  0
   -6.4569   -0.2265   -1.3169 C   0  0  0  0  0  0  0  0  0  0  0  0
   -6.1107    1.0254   -0.5159 C   0  0  0  0  0  0  0  0  0  0  0  0
   -4.8059    0.7133    0.2040 C   0  0  0  0  0  0  0  0  0  0  0  0
   -4.2325   -0.4261   -0.4945 N   0  0  0  0  0  0  0  0  0  0  0  0
   -2.8627   -0.8457   -0.3402 C   0  0  0  0  0  0  0  0  0  0  0  0
   -2.3724   -1.6808   -1.1492 O   0  0  0  0  0  0  0  0  0  0  0  0
   -1.9979   -0.2639    0.7464 C   0  0  0  0  0  0  0  0  0  0  0  0
   -0.7888   -1.0765    0.9437 N   0  0  0  0  0  0  0  0  0  0  0  0
   -0.0993   -0.7623    2.2064 C   0  0  0  0  0  0  0  0  0  0  0  0
    0.5333    0.6413    2.2268 C   0  0  0  0  0  0  0  0  0  0  0  0
    1.4927    0.8113    1.1366 N   0  0  0  0  0  0  0  0  0  0  0  0
    1.3641    1.7660    0.0426 C   0  0  0  0  0  0  0  0  0  0  0  0
    2.6738    1.6447   -0.7760 C   0  0  0  0  0  0  0  0  0  0  0  0
    3.4708    0.6104   -0.1157 N   0  0  0  0  0  0  0  0  0  0  0  0
    4.7154    0.0780   -0.6109 C   0  0  0  0  0  0  0  0  0  0  0  0
    5.5919    0.8955   -1.3477 C   0  0  0  0  0  0  0  0  0  0  0  0
    6.7961    0.3820   -1.8391 C   0  0  0  0  0  0  0  0  0  0  0  0
    7.1343   -0.9531   -1.6092 C   0  0  0  0  0  0  0  0  0  0  0  0
    6.2663   -1.7788   -0.8917 C   0  0  0  0  0  0  0  0  0  0  0  0
    5.0613   -1.2699   -0.3972 C   0  0  0  0  0  0  0  0  0  0  0  0
    2.7501    0.1796    1.0247 C   0  0  0  0  0  0  0  0  0  0  0  0
    3.2064   -0.6173    1.8878 O   0  0  0  0  0  0  0  0  0  0  0  0
   -0.9788    0.1173    1.5572 O   0  0  0  0  0  0  0  0  0  0  0  0
   -0.6974    0.0681    0.3302 C   0  0  0  0  0  0  0  0  0  0  0  0
   -1.7126    0.1433   -0.6186 O   0  0  0  0  0  0  0  0  0  0  0  0
    0.6974   -0.0681   -0.0970 C   0  0  0  0  0  0  0  0  0  0  0  0
    0.9788   -0.1173   -1.3240 O   0  0  0  0  0  0  0  0  0  0  0  0
    1.7126   -0.1433    0.8518 O   0  0  0  0  0  0  0  0  0  0  0  0
   -4.7281   -0.8238   -2.5033 H   0  0  0  0  0  0  0  0  0  0  0  0
   -6.8939    0.0397   -2.3041 H   0  0  0  0  0  0  0  0  0  0  0  0
   -7.2054   -0.8202   -0.7440 H   0  0  0  0  0  0  0  0  0  0  0  0
   -5.9569    1.8789   -1.2126 H   0  0  0  0  0  0  0  0  0  0  0  0
   -6.9180    1.2839    0.2035 H   0  0  0  0  0  0  0  0  0  0  0  0
   -4.1230    1.5892    0.1551 H   0  0  0  0  0  0  0  0  0  0  0  0
   -4.9999    0.4413    1.2639 H   0  0  0  0  0  0  0  0  0  0  0  0
   -2.5934   -0.2299    1.6848 H   0  0  0  0  0  0  0  0  0  0  0  0
   -1.7232    0.7725    0.4557 H   0  0  0  0  0  0  0  0  0  0  0  0
   -0.1353   -0.9268    0.1398 H   0  0  0  0  0  0  0  0  0  0  0  0
   -0.8041   -0.8607    3.0609 H   0  0  0  0  0  0  0  0  0  0  0  0
    0.6968   -1.5193    2.3698 H   0  0  0  0  0  0  0  0  0  0  0  0
   -0.2584    1.4172    2.1624 H   0  0  0  0  0  0  0  0  0  0  0  0
    1.0555    0.7903    3.1962 H   0  0  0  0  0  0  0  0  0  0  0  0
    0.4838    1.5087   -0.5842 H   0  0  0  0  0  0  0  0  0  0  0  0
    1.2509    2.7943    0.4489 H   0  0  0  0  0  0  0  0  0  0  0  0
    2.4540    1.3438   -1.8231 H   0  0  0  0  0  0  0  0  0  0  0  0
    3.2192    2.6125   -0.7656 H   0  0  0  0  0  0  0  0  0  0  0  0
    5.3534    1.9339   -1.5335 H   0  0  0  0  0  0  0  0  0  0  0  0
    7.4675    1.0204   -2.3987 H   0  0  0  0  0  0  0  0  0  0  0  0
    8.0660   -1.3493   -1.9918 H   0  0  0  0  0  0  0  0  0  0  0  0
    6.5235   -2.8169   -0.7248 H   0  0  0  0  0  0  0  0  0  0  0  0
    4.3924   -1.9386    0.1263 H   0  0  0  0  0  0  0  0  0  0  0  0
   -2.6812    0.2375   -0.3368 H   0  0  0  0  0  0  0  0  0  0  0  0
    2.6812   -0.2375    0.5700 H   0  0  0  0  0  0  0  0  0  0  0  0
  1  2  3  0
  2  3  1  0
  3  4  1  0
  4  5  1  0
  5  6  1  0
  6  7  1  0
  7  8  1  0
  8  9  2  0
  8 10  1  0
 10 11  1  0
 11 12  1  0
 12 13  1  0
 13 14  1  0
 14 15  1  0
 15 16  1  0
 16 17  1  0
 17 18  1  0
 18 19  2  0
 19 20  1  0
 20 21  2  0
 21 22  1  0
 22 23  2  0
 17 24  1  0
 24 25  2  0
 26 27  2  0
 27 28  1  0
 27 29  1  0
 29 30  2  0
 29 31  1  0
  7  3  1  0
 24 14  1  0
 23 18  1  0
  3 32  1  6
  4 33  1  0
  4 34  1  0
  5 35  1  0
  5 36  1  0
  6 37  1  0
  6 38  1  0
 10 39  1  0
 10 40  1  0
 11 41  1  0
 12 42  1  0
 12 43  1  0
 13 44  1  0
 13 45  1  0
 15 46  1  0
 15 47  1  0
 16 48  1  0
 16 49  1  0
 19 50  1  0
 20 51  1  0
 21 52  1  0
 22 53  1  0
 23 54  1  0
 28 55  1  0
 31 56  1  0
M  END
$$$$
