
     RDKit          3D

 69 71  0  0  0  0  0  0  0  0999 V2000
    0.6878    0.0000    0.0000 Cl  0  0  0  0  0  0  0  0  0  0  0  0
    4.2716    7.8723   -0.1886 N   0  0  0  0  0  0  0  0  0  0  0  0
    3.5779    6.8546    0.5316 C   0  0  0  0  0  0  0  0  0  0  0  0
    3.5190    6.9172    1.7889 O   0  0  0  0  0  0  0  0  0  0  0  0
    2.9196    5.7968   -0.1818 N   0  0  0  0  0  0  0  0  0  0  0  0
    2.3603    4.6274    0.4411 C   0  0  0  0  0  0  0  0  0  0  0  0
    2.9666    4.0308    1.5599 C   0  0  0  0  0  0  0  0  0  0  0  0
    2.4144    2.8820    2.1300 C   0  0  0  0  0  0  0  0  0  0  0  0
    1.2644    2.3078    1.5840 C   0  0  0  0  0  0  0  0  0  0  0  0
    0.6610    2.8762    0.4456 C   0  0  0  0  0  0  0  0  0  0  0  0
   -0.4799    2.3340   -0.1635 O   0  0  0  0  0  0  0  0  0  0  0  0
   -1.2358    0.8597    0.3076 P   0  0  0  0  0  0  0  0  0  0  0  0
   -1.8437    1.0288    1.6817 O   0  0  0  0  0  0  0  0  0  0  0  0
   -0.0704   -0.4088    0.3708 O   0  0  0  0  0  0  0  0  0  0  0  0
    0.8639   -0.7103   -0.6322 C   0  0  0  0  0  0  0  0  0  0  0  0
    0.9235   -0.0519   -1.8063 C   0  0  0  0  0  0  0  0  0  0  0  0
    1.9515   -0.3880   -2.8084 C   0  0  0  0  0  0  0  0  0  0  0  0
    2.9738   -1.1882   -2.4940 C   0  0  0  0  0  0  0  0  0  0  0  0
    3.1582   -1.6708   -1.0759 C   0  0  0  0  0  0  0  0  0  0  0  0
    3.9172   -2.9236   -1.0588 N   0  0  0  0  0  0  0  0  0  0  0  0
    4.6450   -3.3621    0.0963 C   0  0  0  0  0  0  0  0  0  0  0  0
    5.3146   -4.6218    0.0819 N   0  0  0  0  0  0  0  0  0  0  0  0
    4.6995   -2.6411    1.1289 O   0  0  0  0  0  0  0  0  0  0  0  0
    1.7948   -1.8713   -0.3844 C   0  0  0  0  0  0  0  0  0  0  0  0
   -2.5593    0.4422   -0.8854 C   0  0  0  0  0  0  0  0  0  0  0  0
   -3.6877    1.4712   -0.8417 C   0  0  0  0  0  0  0  0  0  0  0  0
   -4.7702    0.8563    0.0403 C   0  0  0  0  0  0  0  0  0  0  0  0
   -4.5285   -0.6475    0.0038 C   0  0  0  0  0  0  0  0  0  0  0  0
   -3.1774   -0.8197   -0.5079 N   0  0  0  0  0  0  0  0  0  0  0  0
   -2.5712   -2.0996   -0.7768 C   0  0  0  0  0  0  0  0  0  0  0  0
   -1.7082   -2.1967   -1.6906 O   0  0  0  0  0  0  0  0  0  0  0  0
   -2.8996   -3.3263    0.0366 C   0  0  0  0  0  0  0  0  0  0  0  0
   -2.5502   -3.1490    1.5150 C   0  0  0  0  0  0  0  0  0  0  0  0
   -3.7338   -3.7177    2.2764 C   0  0  0  0  0  0  0  0  0  0  0  0
   -4.6623   -4.2854    1.2158 C   0  0  0  0  0  0  0  0  0  0  0  0
   -4.3233   -3.6420   -0.0490 N   0  0  0  0  0  0  0  0  0  0  0  0
    1.2192    4.0309   -0.1166 C   0  0  0  0  0  0  0  0  0  0  0  0
   -0.6878    0.0000    0.0000 H   0  0  0  0  0  0  0  0  0  0  0  0
    4.3245    7.8431   -1.2309 H   0  0  0  0  0  0  0  0  0  0  0  0
    4.7387    8.6548    0.3211 H   0  0  0  0  0  0  0  0  0  0  0  0
    2.7630    5.9304   -1.2065 H   0  0  0  0  0  0  0  0  0  0  0  0
    3.8784    4.4344    1.9791 H   0  0  0  0  0  0  0  0  0  0  0  0
    2.8842    2.4300    2.9942 H   0  0  0  0  0  0  0  0  0  0  0  0
    0.8616    1.4226    2.0538 H   0  0  0  0  0  0  0  0  0  0  0  0
    0.2289    0.7362   -2.0505 H   0  0  0  0  0  0  0  0  0  0  0  0
    1.8791    0.0273   -3.8054 H   0  0  0  0  0  0  0  0  0  0  0  0
    3.7288   -1.4045   -3.2401 H   0  0  0  0  0  0  0  0  0  0  0  0
    3.7269   -0.8828   -0.5337 H   0  0  0  0  0  0  0  0  0  0  0  0
    3.8616   -3.5658   -1.8822 H   0  0  0  0  0  0  0  0  0  0  0  0
    5.8460   -4.9465    0.9201 H   0  0  0  0  0  0  0  0  0  0  0  0
    5.2810   -5.2317   -0.7647 H   0  0  0  0  0  0  0  0  0  0  0  0
    1.3095   -2.7945   -0.7700 H   0  0  0  0  0  0  0  0  0  0  0  0
    1.9497   -1.9945    0.7091 H   0  0  0  0  0  0  0  0  0  0  0  0
   -2.1424    0.3834   -1.9133 H   0  0  0  0  0  0  0  0  0  0  0  0
   -4.0938    1.6098   -1.8680 H   0  0  0  0  0  0  0  0  0  0  0  0
   -3.3631    2.4628   -0.4571 H   0  0  0  0  0  0  0  0  0  0  0  0
   -5.7869    1.1136   -0.3284 H   0  0  0  0  0  0  0  0  0  0  0  0
   -4.6552    1.2288    1.0820 H   0  0  0  0  0  0  0  0  0  0  0  0
   -4.6208   -1.0770    1.0233 H   0  0  0  0  0  0  0  0  0  0  0  0
   -5.2534   -1.1343   -0.6839 H   0  0  0  0  0  0  0  0  0  0  0  0
   -2.3116   -4.1902   -0.3562 H   0  0  0  0  0  0  0  0  0  0  0  0
   -1.6204   -3.7072    1.7622 H   0  0  0  0  0  0  0  0  0  0  0  0
   -2.4002   -2.0816    1.7921 H   0  0  0  0  0  0  0  0  0  0  0  0
   -3.4138   -4.5087    2.9894 H   0  0  0  0  0  0  0  0  0  0  0  0
   -4.2501   -2.9082    2.8381 H   0  0  0  0  0  0  0  0  0  0  0  0
   -4.5138   -5.3871    1.1387 H   0  0  0  0  0  0  0  0  0  0  0  0
   -5.7240   -4.0809    1.4707 H   0  0  0  0  0  0  0  0  0  0  0  0
   -4.4844   -4.3175   -0.8332 H   0  0  0  0  0  0  0  0  0  0  0  0
    0.7574    4.4698   -0.9926 H   0  0  0  0  0  0  0  0  0  0  0  0
  2  3  1  0
  3  4  2  0
  3  5  1  0
  5  6  1  0
  6  7  2  0
  7  8  1  0
  8  9  2  0
  9 10  1  0
 10 11  1  0
 11 12  1  0
 12 13  2  0
 12 14  1  0
 14 15  1  0
 15 16  2  0
 16 17  1  0
 17 18  2  0
 18 19  1  0
 19 20  1  0
 20 21  1  0
 21 22  1  0
 21 23  2  0
 19 24  1  0
 12 25  1  0
 25 26  1  0
 26 27  1  0
 27 28  1  0
 28 29  1  0
 29 30  1  0
 30 31  2  0
 30 32  1  0
 32 33  1  0
 33 34  1  0
 34 35  1  0
 35 36  1  0
 10 37  2  0
 37  6  1  0
 24 15  1  0
 29 25  1  0
 36 32  1  0
  1 38  1  0
  2 39  1  0
  2 40  1  0
  5 41  1  0
  7 42  1  0
  8 43  1  0
  9 44  1  0
 16 45  1  0
 17 46  1  0
 18 47  1  0
 19 48  1  0
 20 49  1  0
 22 50  1  0
 22 51  1  0
 24 52  1  0
 24 53  1  0
 25 54  1  0
 26 55  1  0
 26 56  1  0
 27 57  1  0
 27 58  1  0
 28 59  1  0
 28 60  1  0
 32 61  1  0
 33 62  1  0
 33 63  1  0
 34 64  1  0
 34 65  1  0
 35 66  1  0
 35 67  1  0
 36 68  1  0
 37 69  1  0
M  END
$$$$
