
     RDKit          3D

 19 19  0  0  0  0  0  0  0  0999 V2000
   -4.1728   -0.9279    1.1983 N   0  0  0  0  0  0  0  0  0  0  0  0
   -3.2626   -0.4072    0.7092 C   0  0  0  0  0  0  0  0  0  0  0  0
   -2.1315    0.2394    0.1018 C   0  0  0  0  0  0  0  0  0  0  0  0
   -2.1318    1.3703   -0.7072 C   0  0  0  0  0  0  0  0  0  0  0  0
   -0.8615    1.6658   -1.0814 N   0  0  0  0  0  0  0  0  0  0  0  0
   -0.0789    0.7523   -0.5281 N   0  0  0  0  0  0  0  0  0  0  0  0
    1.2684    0.6486   -0.6265 C   0  0  0  0  0  0  0  0  0  0  0  0
    1.9250    1.4820   -1.3068 O   0  0  0  0  0  0  0  0  0  0  0  0
    1.8930   -0.4197    0.0578 C   0  0  0  0  0  0  0  0  0  0  0  0
    3.3152   -0.6269    0.0238 N   0  0  0  0  0  0  0  0  0  0  0  0
    3.8163   -1.5860    0.6458 O   0  0  0  0  0  0  0  0  0  0  0  0
    4.1455    0.2124   -0.6829 O   0  0  0  0  0  0  0  0  0  0  0  0
    1.1035   -1.2815    0.7755 N   0  0  0  0  0  0  0  0  0  0  0  0
   -0.2251   -1.1390    0.8437 N   0  0  0  0  0  0  0  0  0  0  0  0
   -0.8064   -0.1103    0.1822 C   0  0  0  0  0  0  0  0  0  0  0  0
    0.9376    0.0000    0.0000 Na  0  0  0  0  0  1  0  0  0  0  0  0
   -3.0009    1.9419   -1.0049 H   0  0  0  0  0  0  0  0  0  0  0  0
   -0.7953   -1.8142    1.3997 H   0  0  0  0  0  0  0  0  0  0  0  0
   -0.9376    0.0000    0.0000 H   0  0  0  0  0  0  0  0  0  0  0  0
  1  2  3  0
  2  3  1  0
  3  4  1  0
  4  5  2  0
  5  6  1  0
  6  7  1  0
  7  8  2  0
  7  9  1  0
  9 10  1  0
 10 11  2  0
 10 12  1  0
  9 13  2  0
 13 14  1  0
 14 15  1  0
 15  3  2  0
 15  6  1  0
  4 17  1  0
 14 18  1  0
 16 19  1  0
M  CHG  2  10   1  12  -1
M  END
$$$$
