
     RDKit          3D

 42 44  0  0  0  0  0  0  0  0999 V2000
   -0.1048    2.3337   -0.6479 N   0  0  0  0  0  0  0  0  0  0  0  0
   -0.1115    1.3663   -1.7496 C   0  0  1  0  0  0  0  0  0  0  0  0
    1.3033    0.8368   -2.0859 C   0  0  0  0  0  0  0  0  0  0  0  0
    1.8597   -0.1093   -1.0572 C   0  0  0  0  0  0  0  0  0  0  0  0
    1.5850   -1.4707   -0.9528 C   0  0  0  0  0  0  0  0  0  0  0  0
    2.2300   -2.0034    0.1094 N   0  0  0  0  0  0  0  0  0  0  0  0
    2.9112   -0.9926    0.6758 C   0  0  0  0  0  0  0  0  0  0  0  0
    3.7213   -1.0518    1.8089 C   0  0  0  0  0  0  0  0  0  0  0  0
    4.3404    0.1363    2.2376 C   0  0  0  0  0  0  0  0  0  0  0  0
    4.1382    1.3433    1.5324 C   0  0  0  0  0  0  0  0  0  0  0  0
    3.3147    1.3738    0.3924 C   0  0  0  0  0  0  0  0  0  0  0  0
    2.7126    0.1801   -0.0083 C   0  0  0  0  0  0  0  0  0  0  0  0
   -1.1200    0.2497   -1.5489 C   0  0  0  0  0  0  0  0  0  0  0  0
   -1.4504   -0.4181   -2.5671 O   0  0  0  0  0  0  0  0  0  0  0  0
   -1.7368   -0.0690   -0.2782 N   0  0  0  0  0  0  0  0  0  0  0  0
   -1.1087    0.1199    1.0227 C   0  0  0  0  0  0  0  0  0  0  0  0
   -1.7824   -0.8715    1.9585 C   0  0  0  0  0  0  0  0  0  0  0  0
   -3.1184   -1.1982    1.3078 C   0  0  0  0  0  0  0  0  0  0  0  0
   -2.9157   -0.9270   -0.1848 C   0  0  1  0  0  0  0  0  0  0  0  0
   -4.2092   -0.2380   -0.8439 B   0  0  0  0  0  0  0  0  0  0  0  0
   -4.1474    1.1338   -1.3449 O   0  0  0  0  0  0  0  0  0  0  0  0
   -5.4678   -0.9761   -0.9109 O   0  0  0  0  0  0  0  0  0  0  0  0
    0.5640    2.0332    0.0944 H   0  0  0  0  0  0  0  0  0  0  0  0
    0.2619    3.2437   -1.0110 H   0  0  0  0  0  0  0  0  0  0  0  0
   -0.4560    1.9145   -2.6565 H   0  0  0  0  0  0  0  0  0  0  0  0
    1.9960    1.6950   -2.2192 H   0  0  0  0  0  0  0  0  0  0  0  0
    1.2669    0.3071   -3.0628 H   0  0  0  0  0  0  0  0  0  0  0  0
    0.9394   -2.0364   -1.6119 H   0  0  0  0  0  0  0  0  0  0  0  0
    2.1972   -2.9980    0.4259 H   0  0  0  0  0  0  0  0  0  0  0  0
    3.8692   -1.9812    2.3433 H   0  0  0  0  0  0  0  0  0  0  0  0
    4.9754    0.1253    3.1138 H   0  0  0  0  0  0  0  0  0  0  0  0
    4.6193    2.2513    1.8718 H   0  0  0  0  0  0  0  0  0  0  0  0
    3.1550    2.2968   -0.1490 H   0  0  0  0  0  0  0  0  0  0  0  0
   -1.2925    1.1556    1.3797 H   0  0  0  0  0  0  0  0  0  0  0  0
   -0.0221   -0.0904    0.9811 H   0  0  0  0  0  0  0  0  0  0  0  0
   -1.9161   -0.4454    2.9766 H   0  0  0  0  0  0  0  0  0  0  0  0
   -1.1681   -1.7968    2.0257 H   0  0  0  0  0  0  0  0  0  0  0  0
   -3.8964   -0.5336    1.7486 H   0  0  0  0  0  0  0  0  0  0  0  0
   -3.4051   -2.2568    1.4908 H   0  0  0  0  0  0  0  0  0  0  0  0
   -2.7116   -1.8863   -0.7095 H   0  0  0  0  0  0  0  0  0  0  0  0
   -4.3811    1.6961   -0.5638 H   0  0  0  0  0  0  0  0  0  0  0  0
   -5.4385   -1.4416   -1.7847 H   0  0  0  0  0  0  0  0  0  0  0  0
  1  2  1  0
  2  3  1  0
  3  4  1  0
  4  5  2  0
  5  6  1  0
  6  7  1  0
  7  8  2  0
  8  9  1  0
  9 10  2  0
 10 11  1  0
 11 12  2  0
  2 13  1  0
 13 14  2  0
 13 15  1  0
 15 16  1  0
 16 17  1  0
 17 18  1  0
 18 19  1  0
 19 20  1  0
 20 21  1  0
 20 22  1  0
 12  4  1  0
 19 15  1  0
 12  7  1  0
  1 23  1  0
  1 24  1  0
  2 25  1  6
  3 26  1  0
  3 27  1  0
  5 28  1  0
  6 29  1  0
  8 30  1  0
  9 31  1  0
 10 32  1  0
 11 33  1  0
 16 34  1  0
 16 35  1  0
 17 36  1  0
 17 37  1  0
 18 38  1  0
 18 39  1  0
 19 40  1  6
 21 41  1  0
 22 42  1  0
M  END
$$$$
