
     RDKit          3D

 39 40  0  0  0  0  0  0  0  0999 V2000
   -5.2038    2.1534   -2.2848 N   0  0  0  0  0  0  0  0  0  0  0  0
   -4.9271    1.4011   -1.4500 C   0  0  0  0  0  0  0  0  0  0  0  0
   -4.5743    0.4433   -0.3880 C   0  0  2  0  0  0  0  0  0  0  0  0
   -5.0154    0.9565    0.9848 C   0  0  0  0  0  0  0  0  0  0  0  0
   -3.8507    0.6703    1.9282 C   0  0  0  0  0  0  0  0  0  0  0  0
   -2.6220    0.5196    1.0419 C   0  0  0  0  0  0  0  0  0  0  0  0
   -3.1297    0.2770   -0.2994 N   0  0  0  0  0  0  0  0  0  0  0  0
   -2.3180   -0.2187   -1.3828 C   0  0  0  0  0  0  0  0  0  0  0  0
   -2.8653   -0.6030   -2.4518 O   0  0  0  0  0  0  0  0  0  0  0  0
   -0.8274   -0.3294   -1.2530 C   0  0  0  0  0  0  0  0  0  0  0  0
   -0.4898   -1.5767   -0.5561 N   0  0  0  0  0  0  0  0  0  0  0  0
    0.8861   -1.5705   -0.0364 C   0  0  0  0  0  0  0  0  0  0  0  0
    1.9370   -1.6900   -1.1521 C   0  0  0  0  0  0  0  0  0  0  0  0
    3.2492   -1.7684   -0.5953 O   0  0  0  0  0  0  0  0  0  0  0  0
    3.9698   -0.6912   -0.0530 C   0  0  0  0  0  0  0  0  0  0  0  0
    3.5038    0.6392   -0.0967 C   0  0  0  0  0  0  0  0  0  0  0  0
    4.2669    1.6706    0.4602 C   0  0  0  0  0  0  0  0  0  0  0  0
    5.4966    1.3885    1.0602 C   0  0  0  0  0  0  0  0  0  0  0  0
    5.9666    0.0739    1.1033 C   0  0  0  0  0  0  0  0  0  0  0  0
    5.2066   -0.9601    0.5481 C   0  0  0  0  0  0  0  0  0  0  0  0
   -5.0484   -0.5395   -0.6009 H   0  0  0  0  0  0  0  0  0  0  0  0
   -5.2019    2.0547    0.9723 H   0  0  0  0  0  0  0  0  0  0  0  0
   -5.9405    0.4425    1.3261 H   0  0  0  0  0  0  0  0  0  0  0  0
   -4.0392   -0.2834    2.4690 H   0  0  0  0  0  0  0  0  0  0  0  0
   -3.7171    1.4883    2.6691 H   0  0  0  0  0  0  0  0  0  0  0  0
   -2.0188    1.4530    1.0487 H   0  0  0  0  0  0  0  0  0  0  0  0
   -2.0035   -0.3352    1.3907 H   0  0  0  0  0  0  0  0  0  0  0  0
   -0.3701   -0.3178   -2.2670 H   0  0  0  0  0  0  0  0  0  0  0  0
   -0.4482    0.5570   -0.6991 H   0  0  0  0  0  0  0  0  0  0  0  0
   -0.6105   -2.3816   -1.2154 H   0  0  0  0  0  0  0  0  0  0  0  0
    1.0029   -2.4388    0.6470 H   0  0  0  0  0  0  0  0  0  0  0  0
    1.0622   -0.6609    0.5768 H   0  0  0  0  0  0  0  0  0  0  0  0
    1.7497   -2.6250   -1.7210 H   0  0  0  0  0  0  0  0  0  0  0  0
    1.8763   -0.8474   -1.8712 H   0  0  0  0  0  0  0  0  0  0  0  0
    2.5593    0.8909   -0.5573 H   0  0  0  0  0  0  0  0  0  0  0  0
    3.9048    2.6900    0.4255 H   0  0  0  0  0  0  0  0  0  0  0  0
    6.0854    2.1885    1.4901 H   0  0  0  0  0  0  0  0  0  0  0  0
    6.9199   -0.1444    1.5670 H   0  0  0  0  0  0  0  0  0  0  0  0
    5.5789   -1.9760    0.5865 H   0  0  0  0  0  0  0  0  0  0  0  0
  1  2  3  0
  2  3  1  0
  3  4  1  0
  4  5  1  0
  5  6  1  0
  6  7  1  0
  7  8  1  0
  8  9  2  0
  8 10  1  0
 10 11  1  0
 11 12  1  0
 12 13  1  0
 13 14  1  0
 14 15  1  0
 15 16  2  0
 16 17  1  0
 17 18  2  0
 18 19  1  0
 19 20  2  0
  7  3  1  0
 20 15  1  0
  3 21  1  6
  4 22  1  0
  4 23  1  0
  5 24  1  0
  5 25  1  0
  6 26  1  0
  6 27  1  0
 10 28  1  0
 10 29  1  0
 11 30  1  0
 12 31  1  0
 12 32  1  0
 13 33  1  0
 13 34  1  0
 16 35  1  0
 17 36  1  0
 18 37  1  0
 19 38  1  0
 20 39  1  0
M  END
$$$$
