
     RDKit          3D

 52 56  0  0  0  0  0  0  0  0999 V2000
    3.8266   -1.4469   -2.4614 O   0  0  0  0  0  0  0  0  0  0  0  0
    4.2634   -0.8998   -1.4112 C   0  0  0  0  0  0  0  0  0  0  0  0
    3.6379    0.3957   -0.9515 C   0  0  2  0  0  0  0  0  0  0  0  0
    2.4066    0.1431   -0.0946 C   0  0  0  0  0  0  0  0  0  0  0  0
    1.5255    1.3542   -0.3567 C   0  0  2  0  0  0  0  0  0  0  0  0
    0.0799    1.0621   -0.1634 N   0  0  0  0  0  0  0  0  0  0  0  0
   -0.1829    0.5333    1.2002 C   0  0  0  0  0  0  0  0  0  0  0  0
   -1.6608    0.6409    1.6471 C   0  0  0  0  0  0  0  0  0  0  0  0
   -2.5724    0.8753    0.5175 N   0  0  0  0  0  0  0  0  0  0  0  0
   -3.9173    0.3562    0.5307 C   0  0  0  0  0  0  0  0  0  0  0  0
   -4.7873    0.5425   -0.4948 N   0  0  0  0  0  0  0  0  0  0  0  0
   -5.9870   -0.0347   -0.2301 C   0  0  0  0  0  0  0  0  0  0  0  0
   -7.0812   -0.0120   -1.0966 C   0  0  0  0  0  0  0  0  0  0  0  0
   -8.2699   -0.6492   -0.7001 C   0  0  0  0  0  0  0  0  0  0  0  0
   -8.3506   -1.2969    0.5492 C   0  0  0  0  0  0  0  0  0  0  0  0
   -7.2436   -1.3129    1.4127 C   0  0  0  0  0  0  0  0  0  0  0  0
   -6.0783   -0.6746    0.9959 C   0  0  0  0  0  0  0  0  0  0  0  0
   -4.6152   -0.5290    1.8031 S   0  0  0  0  0  0  0  0  0  0  0  0
   -2.2034    1.8306   -0.5342 C   0  0  0  0  0  0  0  0  0  0  0  0
   -0.7450    2.2607   -0.4046 C   0  0  0  0  0  0  0  0  0  0  0  0
    1.8643    1.6945   -1.8110 C   0  0  0  0  0  0  0  0  0  0  0  0
    3.2096    1.1933   -2.1044 N   0  0  0  0  0  0  0  0  0  0  0  0
    5.3045   -1.5509   -0.6550 N   0  0  0  0  0  0  0  0  0  0  0  0
    5.7907   -1.0537    0.6255 C   0  0  0  0  0  0  0  0  0  0  0  0
    6.6539   -2.1358    1.2518 C   0  0  0  0  0  0  0  0  0  0  0  0
    7.3711   -3.1289   -0.0852 S   0  0  0  0  0  0  0  0  0  0  0  0
    5.9522   -2.7562   -1.1541 C   0  0  0  0  0  0  0  0  0  0  0  0
    4.3726    0.9842   -0.3559 H   0  0  0  0  0  0  0  0  0  0  0  0
    1.8838   -0.7830   -0.4269 H   0  0  0  0  0  0  0  0  0  0  0  0
    2.6713    0.0576    0.9815 H   0  0  0  0  0  0  0  0  0  0  0  0
    1.8509    2.1935    0.3025 H   0  0  0  0  0  0  0  0  0  0  0  0
    0.0997   -0.5415    1.2206 H   0  0  0  0  0  0  0  0  0  0  0  0
    0.4463    1.0560    1.9568 H   0  0  0  0  0  0  0  0  0  0  0  0
   -1.7682    1.4835    2.3643 H   0  0  0  0  0  0  0  0  0  0  0  0
   -1.9275   -0.2914    2.1885 H   0  0  0  0  0  0  0  0  0  0  0  0
   -7.0181    0.4860   -2.0557 H   0  0  0  0  0  0  0  0  0  0  0  0
   -9.1288   -0.6423   -1.3585 H   0  0  0  0  0  0  0  0  0  0  0  0
   -9.2706   -1.7842    0.8447 H   0  0  0  0  0  0  0  0  0  0  0  0
   -7.2957   -1.8071    2.3741 H   0  0  0  0  0  0  0  0  0  0  0  0
   -2.8607    2.7254   -0.4794 H   0  0  0  0  0  0  0  0  0  0  0  0
   -2.3424    1.3484   -1.5268 H   0  0  0  0  0  0  0  0  0  0  0  0
   -0.4654    2.7712   -1.3498 H   0  0  0  0  0  0  0  0  0  0  0  0
   -0.6302    2.9954    0.4254 H   0  0  0  0  0  0  0  0  0  0  0  0
    1.1491    1.1935   -2.4995 H   0  0  0  0  0  0  0  0  0  0  0  0
    1.8080    2.7935   -1.9802 H   0  0  0  0  0  0  0  0  0  0  0  0
    3.8599    2.0076   -2.2137 H   0  0  0  0  0  0  0  0  0  0  0  0
    6.3947   -0.1358    0.4584 H   0  0  0  0  0  0  0  0  0  0  0  0
    4.9421   -0.8232    1.3039 H   0  0  0  0  0  0  0  0  0  0  0  0
    6.0266   -2.7995    1.8849 H   0  0  0  0  0  0  0  0  0  0  0  0
    7.4578   -1.6902    1.8749 H   0  0  0  0  0  0  0  0  0  0  0  0
    6.3174   -2.5945   -2.1904 H   0  0  0  0  0  0  0  0  0  0  0  0
    5.2358   -3.6044   -1.1345 H   0  0  0  0  0  0  0  0  0  0  0  0
  1  2  2  0
  2  3  1  0
  3  4  1  0
  4  5  1  0
  5  6  1  0
  6  7  1  0
  7  8  1  0
  8  9  1  0
  9 10  1  0
 10 11  2  0
 11 12  1  0
 12 13  2  0
 13 14  1  0
 14 15  2  0
 15 16  1  0
 16 17  2  0
 17 18  1  0
  9 19  1  0
 19 20  1  0
  5 21  1  0
 21 22  1  0
  2 23  1  0
 23 24  1  0
 24 25  1  0
 25 26  1  0
 26 27  1  0
 22  3  1  0
 27 23  1  0
 20  6  1  0
 18 10  1  0
 17 12  1  0
  3 28  1  1
  4 29  1  0
  4 30  1  0
  5 31  1  1
  7 32  1  0
  7 33  1  0
  8 34  1  0
  8 35  1  0
 13 36  1  0
 14 37  1  0
 15 38  1  0
 16 39  1  0
 19 40  1  0
 19 41  1  0
 20 42  1  0
 20 43  1  0
 21 44  1  0
 21 45  1  0
 22 46  1  0
 24 47  1  0
 24 48  1  0
 25 49  1  0
 25 50  1  0
 27 51  1  0
 27 52  1  0
M  END
$$$$
