
     RDKit          3D

 73 78  0  0  0  0  0  0  0  0999 V2000
   -3.1047    0.5668   -1.3024 O   0  0  0  0  0  0  0  0  0  0  0  0
   -2.9821   -0.6881   -1.3135 C   0  0  0  0  0  0  0  0  0  0  0  0
   -4.0494   -1.5085   -1.8014 N   0  0  0  0  0  0  0  0  0  0  0  0
   -5.3207   -0.9579   -2.2667 C   0  0  0  0  0  0  0  0  0  0  0  0
   -6.1771   -0.5099   -1.0784 C   0  0  0  0  0  0  0  0  0  0  0  0
   -7.5267    0.0423   -1.5484 C   0  0  0  0  0  0  0  0  0  0  0  0
   -8.3553    0.4841   -0.3720 C   0  0  0  0  0  0  0  0  0  0  0  0
   -9.2093   -0.4249    0.2752 C   0  0  0  0  0  0  0  0  0  0  0  0
   -9.9530   -0.0217    1.3887 C   0  0  0  0  0  0  0  0  0  0  0  0
   -9.8422    1.2861    1.8691 C   0  0  0  0  0  0  0  0  0  0  0  0
   -8.9843    2.1920    1.2393 C   0  0  0  0  0  0  0  0  0  0  0  0
   -8.2388    1.7930    0.1254 C   0  0  0  0  0  0  0  0  0  0  0  0
   -1.8075   -1.3049   -0.8584 O   0  0  0  0  0  0  0  0  0  0  0  0
   -0.6508   -0.6431   -0.3263 C   0  0  0  0  0  0  0  0  0  0  0  0
   -1.0026    0.1586    0.9544 C   0  0  0  0  0  0  0  0  0  0  0  0
    0.2746    0.8040    1.5314 C   0  0  0  0  0  0  0  0  0  0  0  0
    0.8993    1.7450    0.4772 C   0  0  0  0  0  0  0  0  0  0  0  0
    1.2635    0.9415   -0.7912 C   0  0  0  0  0  0  0  0  0  0  0  0
    2.2818   -0.1592   -0.4286 C   0  0  0  0  0  0  0  0  0  0  0  0
    1.6775   -1.1173    0.6407 C   0  0  0  0  0  0  0  0  0  0  0  0
    2.5935   -2.2384    0.9713 N   0  0  0  0  0  0  0  0  0  0  0  0
    3.9751   -1.8679    1.3283 C   0  0  0  0  0  0  0  0  0  0  0  0
    4.8607   -1.9165    0.1127 C   0  0  0  0  0  0  0  0  0  0  0  0
    4.7067   -2.8543   -0.7165 O   0  0  0  0  0  0  0  0  0  0  0  0
    5.9044   -0.9499   -0.0994 N   0  0  0  0  0  0  0  0  0  0  0  0
    6.7622   -0.9528   -1.2864 C   0  0  0  0  0  0  0  0  0  0  0  0
    7.6928    0.1725   -1.0313 C   0  0  0  0  0  0  0  0  0  0  0  0
    8.7325    0.6268   -1.8443 C   0  0  0  0  0  0  0  0  0  0  0  0
    9.4982    1.7191   -1.4053 C   0  0  0  0  0  0  0  0  0  0  0  0
    9.2142    2.3344   -0.1708 C   0  0  0  0  0  0  0  0  0  0  0  0
    8.1631    1.8602    0.6308 C   0  0  0  0  0  0  0  0  0  0  0  0
    7.4159    0.7728    0.1750 C   0  0  0  0  0  0  0  0  0  0  0  0
    6.2691    0.1124    0.8425 C   0  0  0  0  0  0  0  0  0  0  0  0
    1.2887   -0.2973    1.9075 C   0  0  0  0  0  0  0  0  0  0  0  0
    0.3809   -1.7354    0.0477 C   0  0  0  0  0  0  0  0  0  0  0  0
   -0.0090    0.2979   -1.3788 C   0  0  0  0  0  0  0  0  0  0  0  0
   -3.8932   -2.5391   -1.8712 H   0  0  0  0  0  0  0  0  0  0  0  0
   -5.1314   -0.1053   -2.9550 H   0  0  0  0  0  0  0  0  0  0  0  0
   -5.8673   -1.7422   -2.8349 H   0  0  0  0  0  0  0  0  0  0  0  0
   -6.3464   -1.3789   -0.4048 H   0  0  0  0  0  0  0  0  0  0  0  0
   -5.6386    0.2769   -0.5067 H   0  0  0  0  0  0  0  0  0  0  0  0
   -7.3616    0.9017   -2.2351 H   0  0  0  0  0  0  0  0  0  0  0  0
   -8.0735   -0.7390   -2.1211 H   0  0  0  0  0  0  0  0  0  0  0  0
   -9.2971   -1.4437   -0.0814 H   0  0  0  0  0  0  0  0  0  0  0  0
  -10.6126   -0.7243    1.8814 H   0  0  0  0  0  0  0  0  0  0  0  0
  -10.4175    1.5961    2.7319 H   0  0  0  0  0  0  0  0  0  0  0  0
   -8.8941    3.2025    1.6163 H   0  0  0  0  0  0  0  0  0  0  0  0
   -7.5704    2.5017   -0.3478 H   0  0  0  0  0  0  0  0  0  0  0  0
   -1.7393    0.9590    0.7342 H   0  0  0  0  0  0  0  0  0  0  0  0
   -1.4632   -0.5140    1.7113 H   0  0  0  0  0  0  0  0  0  0  0  0
    0.0130    1.3896    2.4397 H   0  0  0  0  0  0  0  0  0  0  0  0
    0.1820    2.5552    0.2197 H   0  0  0  0  0  0  0  0  0  0  0  0
    1.8096    2.2300    0.8935 H   0  0  0  0  0  0  0  0  0  0  0  0
    1.7124    1.6248   -1.5448 H   0  0  0  0  0  0  0  0  0  0  0  0
    3.2003    0.3338   -0.0477 H   0  0  0  0  0  0  0  0  0  0  0  0
    2.5611   -0.7296   -1.3419 H   0  0  0  0  0  0  0  0  0  0  0  0
    2.1846   -2.7843    1.7668 H   0  0  0  0  0  0  0  0  0  0  0  0
    4.3784   -2.6062    2.0556 H   0  0  0  0  0  0  0  0  0  0  0  0
    4.0205   -0.8829    1.8283 H   0  0  0  0  0  0  0  0  0  0  0  0
    6.1597   -0.7636   -2.2003 H   0  0  0  0  0  0  0  0  0  0  0  0
    7.3204   -1.9104   -1.3608 H   0  0  0  0  0  0  0  0  0  0  0  0
    8.9445    0.1488   -2.7919 H   0  0  0  0  0  0  0  0  0  0  0  0
   10.3096    2.0895   -2.0184 H   0  0  0  0  0  0  0  0  0  0  0  0
    9.8078    3.1761    0.1615 H   0  0  0  0  0  0  0  0  0  0  0  0
    7.9378    2.3283    1.5803 H   0  0  0  0  0  0  0  0  0  0  0  0
    6.5809   -0.3210    1.8166 H   0  0  0  0  0  0  0  0  0  0  0  0
    5.4328    0.8325    0.9652 H   0  0  0  0  0  0  0  0  0  0  0  0
    0.8437   -0.9654    2.6776 H   0  0  0  0  0  0  0  0  0  0  0  0
    2.1764    0.1850    2.3660 H   0  0  0  0  0  0  0  0  0  0  0  0
   -0.0747   -2.4357    0.7834 H   0  0  0  0  0  0  0  0  0  0  0  0
    0.6316   -2.3363   -0.8553 H   0  0  0  0  0  0  0  0  0  0  0  0
   -0.7122    1.1033   -1.6760 H   0  0  0  0  0  0  0  0  0  0  0  0
    0.2450   -0.2744   -2.2982 H   0  0  0  0  0  0  0  0  0  0  0  0
  1  2  2  0
  2  3  1  0
  3  4  1  0
  4  5  1  0
  5  6  1  0
  6  7  1  0
  7  8  2  0
  8  9  1  0
  9 10  2  0
 10 11  1  0
 11 12  2  0
  2 13  1  0
 13 14  1  0
 14 15  1  0
 15 16  1  0
 16 17  1  0
 17 18  1  0
 18 19  1  0
 19 20  1  0
 20 21  1  0
 21 22  1  0
 22 23  1  0
 23 24  2  0
 23 25  1  0
 25 26  1  0
 26 27  1  0
 27 28  2  0
 28 29  1  0
 29 30  2  0
 30 31  1  0
 31 32  2  0
 32 33  1  0
 20 34  1  0
 20 35  1  0
 18 36  1  0
 12  7  1  0
 35 14  1  0
 36 14  1  0
 34 16  1  0
 33 25  1  0
 32 27  1  0
  3 37  1  0
  4 38  1  0
  4 39  1  0
  5 40  1  0
  5 41  1  0
  6 42  1  0
  6 43  1  0
  8 44  1  0
  9 45  1  0
 10 46  1  0
 11 47  1  0
 12 48  1  0
 15 49  1  0
 15 50  1  0
 16 51  1  0
 17 52  1  0
 17 53  1  0
 18 54  1  0
 19 55  1  0
 19 56  1  0
 21 57  1  0
 22 58  1  0
 22 59  1  0
 26 60  1  0
 26 61  1  0
 28 62  1  0
 29 63  1  0
 30 64  1  0
 31 65  1  0
 33 66  1  0
 33 67  1  0
 34 68  1  0
 34 69  1  0
 35 70  1  0
 35 71  1  0
 36 72  1  0
 36 73  1  0
M  END
$$$$
