
     RDKit          3D

 49 50  0  0  0  0  0  0  0  0999 V2000
    8.1084    0.4111    0.8471 C   0  0  0  0  0  0  0  0  0  0  0  0
    7.9457   -0.5925   -0.0163 C   0  0  0  0  0  0  0  0  0  0  0  0
    6.7092   -0.9253   -0.5898 O   0  0  0  0  0  0  0  0  0  0  0  0
    5.4841   -0.2421   -0.3261 C   0  0  0  0  0  0  0  0  0  0  0  0
    4.3623   -0.8595   -1.1142 C   0  0  0  0  0  0  0  0  0  0  0  0
    4.6419   -1.5788   -2.1127 O   0  0  0  0  0  0  0  0  0  0  0  0
    2.9810   -0.6058   -0.7757 N   0  0  0  0  0  0  0  0  0  0  0  0
    2.6326    0.5036    0.1274 C   0  0  0  0  0  0  0  0  0  0  0  0
    1.1340    0.8254    0.0912 C   0  0  0  0  0  0  0  0  0  0  0  0
    0.3381   -0.4029    0.2282 N   0  0  0  0  0  0  0  0  0  0  0  0
   -0.9039   -0.4196    0.9614 C   0  0  0  0  0  0  0  0  0  0  0  0
   -1.2794   -1.4882    1.5153 O   0  0  0  0  0  0  0  0  0  0  0  0
   -1.8007    0.7909    1.0442 C   0  0  0  0  0  0  0  0  0  0  0  0
   -2.3569    1.2031   -0.3382 C   0  0  2  0  0  0  0  0  0  0  0  0
   -3.0471    2.4912   -0.2343 N   0  0  0  0  0  0  0  0  0  0  0  0
   -3.2933    0.1343   -0.9563 C   0  0  0  0  0  0  0  0  0  0  0  0
   -4.5864   -0.0557   -0.1930 C   0  0  0  0  0  0  0  0  0  0  0  0
   -4.6844   -1.0578    0.7885 C   0  0  0  0  0  0  0  0  0  0  0  0
   -5.8696   -1.2310    1.5088 C   0  0  0  0  0  0  0  0  0  0  0  0
   -6.9707   -0.4117    1.2525 C   0  0  0  0  0  0  0  0  0  0  0  0
   -6.8907    0.5784    0.2708 C   0  0  0  0  0  0  0  0  0  0  0  0
   -5.7075    0.7578   -0.4536 C   0  0  0  0  0  0  0  0  0  0  0  0
   -5.6645    1.7119   -1.4174 F   0  0  0  0  0  0  0  0  0  0  0  0
    0.7667   -1.6375   -0.4441 C   0  0  0  0  0  0  0  0  0  0  0  0
    1.9142   -1.3803   -1.4253 C   0  0  0  0  0  0  0  0  0  0  0  0
    7.2839    1.0363    1.1603 H   0  0  0  0  0  0  0  0  0  0  0  0
    9.0903    0.6158    1.2536 H   0  0  0  0  0  0  0  0  0  0  0  0
    8.8099   -1.1830   -0.2913 H   0  0  0  0  0  0  0  0  0  0  0  0
    5.2548   -0.3136    0.7583 H   0  0  0  0  0  0  0  0  0  0  0  0
    5.5822    0.8249   -0.6191 H   0  0  0  0  0  0  0  0  0  0  0  0
    2.9190    0.2307    1.1659 H   0  0  0  0  0  0  0  0  0  0  0  0
    3.1904    1.4193   -0.1657 H   0  0  0  0  0  0  0  0  0  0  0  0
    0.8856    1.3205   -0.8717 H   0  0  0  0  0  0  0  0  0  0  0  0
    0.9213    1.5332    0.9185 H   0  0  0  0  0  0  0  0  0  0  0  0
   -2.6407    0.5928    1.7438 H   0  0  0  0  0  0  0  0  0  0  0  0
   -1.2333    1.6331    1.4892 H   0  0  0  0  0  0  0  0  0  0  0  0
   -1.4981    1.3284   -1.0346 H   0  0  0  0  0  0  0  0  0  0  0  0
   -3.2978    2.8061   -1.1999 H   0  0  0  0  0  0  0  0  0  0  0  0
   -2.3705    3.2044    0.1234 H   0  0  0  0  0  0  0  0  0  0  0  0
   -2.7541   -0.8349   -1.0331 H   0  0  0  0  0  0  0  0  0  0  0  0
   -3.5264    0.4254   -2.0037 H   0  0  0  0  0  0  0  0  0  0  0  0
   -3.8455   -1.7083    0.9948 H   0  0  0  0  0  0  0  0  0  0  0  0
   -5.9347   -2.0028    2.2648 H   0  0  0  0  0  0  0  0  0  0  0  0
   -7.8881   -0.5479    1.8104 H   0  0  0  0  0  0  0  0  0  0  0  0
   -7.7493    1.2058    0.0683 H   0  0  0  0  0  0  0  0  0  0  0  0
    1.0953   -2.3737    0.3213 H   0  0  0  0  0  0  0  0  0  0  0  0
   -0.0875   -2.0729   -1.0077 H   0  0  0  0  0  0  0  0  0  0  0  0
    2.2936   -2.3634   -1.7793 H   0  0  0  0  0  0  0  0  0  0  0  0
    1.5365   -0.8155   -2.3050 H   0  0  0  0  0  0  0  0  0  0  0  0
  1  2  2  0
  2  3  1  0
  3  4  1  0
  4  5  1  0
  5  6  2  0
  5  7  1  0
  7  8  1  0
  8  9  1  0
  9 10  1  0
 10 11  1  0
 11 12  2  0
 11 13  1  0
 13 14  1  0
 14 15  1  0
 14 16  1  0
 16 17  1  0
 17 18  2  0
 18 19  1  0
 19 20  2  0
 20 21  1  0
 21 22  2  0
 22 23  1  0
 10 24  1  0
 24 25  1  0
 25  7  1  0
 22 17  1  0
  1 26  1  0
  1 27  1  0
  2 28  1  0
  4 29  1  0
  4 30  1  0
  8 31  1  0
  8 32  1  0
  9 33  1  0
  9 34  1  0
 13 35  1  0
 13 36  1  0
 14 37  1  6
 15 38  1  0
 15 39  1  0
 16 40  1  0
 16 41  1  0
 18 42  1  0
 19 43  1  0
 20 44  1  0
 21 45  1  0
 24 46  1  0
 24 47  1  0
 25 48  1  0
 25 49  1  0
M  END
$$$$
