
     RDKit          3D

 73 75  0  0  0  0  0  0  0  0999 V2000
   -6.7642   -3.6057   -0.0764 C   0  0  0  0  0  0  0  0  0  0  0  0
   -6.1971   -2.4268   -0.6385 O   0  0  0  0  0  0  0  0  0  0  0  0
   -6.1225   -1.1915    0.0220 C   0  0  0  0  0  0  0  0  0  0  0  0
   -6.6141   -1.0026    1.3279 C   0  0  0  0  0  0  0  0  0  0  0  0
   -6.5101    0.2472    1.9441 C   0  0  0  0  0  0  0  0  0  0  0  0
   -5.9202    1.3175    1.2682 C   0  0  0  0  0  0  0  0  0  0  0  0
   -5.4347    1.1464   -0.0370 C   0  0  0  0  0  0  0  0  0  0  0  0
   -4.7635    2.2827   -0.7580 C   0  0  0  0  0  0  0  0  0  0  0  0
   -3.3156    2.0931   -0.7499 N   0  0  0  0  0  0  0  0  0  0  0  0
   -2.4999    1.7536   -1.9112 C   0  0  0  0  0  0  0  0  0  0  0  0
   -1.0531    1.5774   -1.3639 C   0  0  0  0  0  0  0  0  0  0  0  0
   -0.5710    0.1195   -1.4471 C   0  0  0  0  0  0  0  0  0  0  0  0
    0.6159   -0.0468   -0.5937 N   0  0  0  0  0  0  0  0  0  0  0  0
    1.9256   -0.2137   -1.1876 C   0  0  0  0  0  0  0  0  0  0  0  0
    2.0778   -0.0342   -2.4269 O   0  0  0  0  0  0  0  0  0  0  0  0
    3.1347   -0.6011   -0.3775 C   0  0  0  0  0  0  0  0  0  0  0  0
    3.9009    0.6387    0.1452 C   0  0  2  0  0  0  0  0  0  0  0  0
    4.5282    1.3930   -0.9455 N   0  0  0  0  0  0  0  0  0  0  0  0
    4.9516    0.2638    1.2120 C   0  0  0  0  0  0  0  0  0  0  0  0
    6.0492   -0.6354    0.6892 C   0  0  0  0  0  0  0  0  0  0  0  0
    5.9085   -2.0322    0.7637 C   0  0  0  0  0  0  0  0  0  0  0  0
    6.9098   -2.8721    0.2669 C   0  0  0  0  0  0  0  0  0  0  0  0
    6.7613   -4.2179    0.3418 F   0  0  0  0  0  0  0  0  0  0  0  0
    8.0612   -2.3253   -0.3066 C   0  0  0  0  0  0  0  0  0  0  0  0
    9.0330   -3.1387   -0.7891 F   0  0  0  0  0  0  0  0  0  0  0  0
    8.2125   -0.9382   -0.3822 C   0  0  0  0  0  0  0  0  0  0  0  0
    7.2140   -0.0930    0.1126 C   0  0  0  0  0  0  0  0  0  0  0  0
    7.3850    1.2510    0.0304 F   0  0  0  0  0  0  0  0  0  0  0  0
    0.4223    0.2531    0.8356 C   0  0  0  0  0  0  0  0  0  0  0  0
   -0.0299    1.7076    0.9898 C   0  0  0  0  0  0  0  0  0  0  0  0
   -1.1108    1.9791    0.0421 N   0  0  0  0  0  0  0  0  0  0  0  0
   -2.4626    2.2232    0.3682 C   0  0  0  0  0  0  0  0  0  0  0  0
   -2.8638    2.5146    1.5266 O   0  0  0  0  0  0  0  0  0  0  0  0
   -5.5337   -0.1130   -0.6499 C   0  0  0  0  0  0  0  0  0  0  0  0
   -2.6537   -1.4138    0.7031 O   0  0  0  0  0  0  0  0  0  0  0  0
   -1.8998   -0.5593    0.1664 C   0  0  0  0  0  0  0  0  0  0  0  0
   -2.4478    0.4323   -0.6436 O   0  0  0  0  0  0  0  0  0  0  0  0
   -0.4497   -0.6231    0.4046 C   0  0  0  0  0  0  0  0  0  0  0  0
    0.3975    0.2579   -0.1397 C   0  0  0  0  0  0  0  0  0  0  0  0
    1.8497    0.2015    0.0933 C   0  0  0  0  0  0  0  0  0  0  0  0
    2.3564   -0.6920    0.8249 O   0  0  0  0  0  0  0  0  0  0  0  0
    2.6717    1.1508   -0.5050 O   0  0  0  0  0  0  0  0  0  0  0  0
   -7.8357   -3.4376    0.1624 H   0  0  0  0  0  0  0  0  0  0  0  0
   -6.6899   -4.4309   -0.8139 H   0  0  0  0  0  0  0  0  0  0  0  0
   -6.2091   -3.8969    0.8402 H   0  0  0  0  0  0  0  0  0  0  0  0
   -7.0742   -1.8140    1.8750 H   0  0  0  0  0  0  0  0  0  0  0  0
   -6.8849    0.3856    2.9501 H   0  0  0  0  0  0  0  0  0  0  0  0
   -5.8397    2.2771    1.7636 H   0  0  0  0  0  0  0  0  0  0  0  0
   -5.1319    2.3186   -1.8064 H   0  0  0  0  0  0  0  0  0  0  0  0
   -5.0120    3.2599   -0.2900 H   0  0  0  0  0  0  0  0  0  0  0  0
   -2.5339    2.5887   -2.6434 H   0  0  0  0  0  0  0  0  0  0  0  0
   -2.8867    0.8294   -2.3929 H   0  0  0  0  0  0  0  0  0  0  0  0
   -0.3441    2.2379   -1.9100 H   0  0  0  0  0  0  0  0  0  0  0  0
   -0.3655   -0.1540   -2.5041 H   0  0  0  0  0  0  0  0  0  0  0  0
   -1.3697   -0.5632   -1.0807 H   0  0  0  0  0  0  0  0  0  0  0  0
    2.8241   -1.2551    0.4641 H   0  0  0  0  0  0  0  0  0  0  0  0
    3.8065   -1.2188   -1.0125 H   0  0  0  0  0  0  0  0  0  0  0  0
    3.1756    1.3127    0.6519 H   0  0  0  0  0  0  0  0  0  0  0  0
    5.0152    0.7367   -1.5984 H   0  0  0  0  0  0  0  0  0  0  0  0
    3.7822    1.8800   -1.4930 H   0  0  0  0  0  0  0  0  0  0  0  0
    5.3973    1.1963    1.6221 H   0  0  0  0  0  0  0  0  0  0  0  0
    4.4411   -0.2292    2.0686 H   0  0  0  0  0  0  0  0  0  0  0  0
    5.0214   -2.4701    1.2044 H   0  0  0  0  0  0  0  0  0  0  0  0
    9.1056   -0.5166   -0.8254 H   0  0  0  0  0  0  0  0  0  0  0  0
    1.3341    0.0862    1.4393 H   0  0  0  0  0  0  0  0  0  0  0  0
   -0.3655   -0.4168    1.2439 H   0  0  0  0  0  0  0  0  0  0  0  0
   -0.3590    1.8982    2.0338 H   0  0  0  0  0  0  0  0  0  0  0  0
    0.8238    2.3811    0.7627 H   0  0  0  0  0  0  0  0  0  0  0  0
   -5.1496   -0.2586   -1.6522 H   0  0  0  0  0  0  0  0  0  0  0  0
   -3.4465    0.4764   -0.8078 H   0  0  0  0  0  0  0  0  0  0  0  0
   -0.0744   -1.4144    1.0428 H   0  0  0  0  0  0  0  0  0  0  0  0
    0.0221    1.0488   -0.7776 H   0  0  0  0  0  0  0  0  0  0  0  0
    3.6744    1.1348   -0.3613 H   0  0  0  0  0  0  0  0  0  0  0  0
  1  2  1  0
  2  3  1  0
  3  4  2  0
  4  5  1  0
  5  6  2  0
  6  7  1  0
  7  8  1  0
  8  9  1  0
  9 10  1  0
 10 11  1  0
 11 12  1  0
 12 13  1  0
 13 14  1  0
 14 15  2  0
 14 16  1  0
 16 17  1  0
 17 18  1  0
 17 19  1  0
 19 20  1  0
 20 21  2  0
 21 22  1  0
 22 23  1  0
 22 24  2  0
 24 25  1  0
 24 26  1  0
 26 27  2  0
 27 28  1  0
 13 29  1  0
 29 30  1  0
 30 31  1  0
 31 32  1  0
 32 33  2  0
  7 34  2  0
 35 36  2  0
 36 37  1  0
 36 38  1  0
 38 39  2  0
 39 40  1  0
 40 41  2  0
 40 42  1  0
 34  3  1  0
 32  9  1  0
 31 11  1  0
 27 20  1  0
  1 43  1  0
  1 44  1  0
  1 45  1  0
  4 46  1  0
  5 47  1  0
  6 48  1  0
  8 49  1  0
  8 50  1  0
 10 51  1  0
 10 52  1  0
 11 53  1  0
 12 54  1  0
 12 55  1  0
 16 56  1  0
 16 57  1  0
 17 58  1  1
 18 59  1  0
 18 60  1  0
 19 61  1  0
 19 62  1  0
 21 63  1  0
 26 64  1  0
 29 65  1  0
 29 66  1  0
 30 67  1  0
 30 68  1  0
 34 69  1  0
 37 70  1  0
 38 71  1  0
 39 72  1  0
 42 73  1  0
M  END
$$$$
