
     RDKit          3D

 52 52  0  0  0  0  0  0  0  0999 V2000
    3.9814    1.6584    0.4636 C   0  0  0  0  0  0  0  0  0  0  0  0
    3.8645    0.2178   -0.0513 C   0  0  0  0  0  0  0  0  0  0  0  0
    5.2529   -0.3261   -0.4089 C   0  0  0  0  0  0  0  0  0  0  0  0
    2.9219    0.1205   -1.2755 C   0  0  0  0  0  0  0  0  0  0  0  0
    1.5059    0.3504   -0.8973 N   0  0  0  0  0  0  0  0  0  0  0  0
    0.7240   -0.6704   -0.3786 C   0  0  0  0  0  0  0  0  0  0  0  0
    1.2517   -2.0980   -0.2523 C   0  0  0  0  0  0  0  0  0  0  0  0
    0.8347   -2.8877   -1.4065 N   0  0  0  0  0  0  0  0  0  0  0  0
   -0.6297   -0.4158   -0.0246 C   0  0  0  0  0  0  0  0  0  0  0  0
   -1.4917   -1.5053    0.4919 C   0  0  0  0  0  0  0  0  0  0  0  0
   -1.5920   -1.7292    1.8734 C   0  0  0  0  0  0  0  0  0  0  0  0
   -2.4135   -2.7508    2.3597 C   0  0  0  0  0  0  0  0  0  0  0  0
   -3.1395   -3.5490    1.4703 C   0  0  0  0  0  0  0  0  0  0  0  0
   -3.0464   -3.3254    0.0932 C   0  0  0  0  0  0  0  0  0  0  0  0
   -2.2264   -2.3045   -0.3968 C   0  0  0  0  0  0  0  0  0  0  0  0
   -1.1560    0.8828   -0.1780 C   0  0  0  0  0  0  0  0  0  0  0  0
   -2.4853    1.2089    0.1653 C   0  0  0  0  0  0  0  0  0  0  0  0
   -2.9697    2.5167    0.0025 C   0  0  0  0  0  0  0  0  0  0  0  0
   -4.3704    2.8462    0.3647 C   0  0  0  0  0  0  0  0  0  0  0  0
   -4.7712    4.1873    0.6585 N   0  0  0  0  0  0  0  0  0  0  0  0
   -5.2304    1.9266    0.4302 O   0  0  0  0  0  0  0  0  0  0  0  0
   -2.1052    3.4841   -0.5291 C   0  0  0  0  0  0  0  0  0  0  0  0
   -0.8312    3.1545   -0.8603 N   0  0  0  0  0  0  0  0  0  0  0  0
   -0.3376    1.8965   -0.6972 C   0  0  0  0  0  0  0  0  0  0  0  0
    0.9820    1.6139   -1.0561 C   0  0  0  0  0  0  0  0  0  0  0  0
    1.6886    2.5474   -1.5315 O   0  0  0  0  0  0  0  0  0  0  0  0
    0.6878    0.0000    0.0000 Cl  0  0  0  0  0  0  0  0  0  0  0  0
    0.6878    0.0000    0.0000 Cl  0  0  0  0  0  0  0  0  0  0  0  0
    3.0007    2.0142    0.8420 H   0  0  0  0  0  0  0  0  0  0  0  0
    4.3318    2.3380   -0.3427 H   0  0  0  0  0  0  0  0  0  0  0  0
    4.7013    1.7073    1.3083 H   0  0  0  0  0  0  0  0  0  0  0  0
    3.4625   -0.4012    0.7788 H   0  0  0  0  0  0  0  0  0  0  0  0
    5.7050    0.2664   -1.2333 H   0  0  0  0  0  0  0  0  0  0  0  0
    5.1778   -1.3876   -0.7281 H   0  0  0  0  0  0  0  0  0  0  0  0
    5.9238   -0.2821    0.4756 H   0  0  0  0  0  0  0  0  0  0  0  0
    3.2567    0.8383   -2.0565 H   0  0  0  0  0  0  0  0  0  0  0  0
    3.0297   -0.8616   -1.7805 H   0  0  0  0  0  0  0  0  0  0  0  0
    0.8606   -2.5702    0.6735 H   0  0  0  0  0  0  0  0  0  0  0  0
    2.3507   -2.1547   -0.1362 H   0  0  0  0  0  0  0  0  0  0  0  0
    1.1527   -3.8720   -1.2531 H   0  0  0  0  0  0  0  0  0  0  0  0
    1.3446   -2.5365   -2.2490 H   0  0  0  0  0  0  0  0  0  0  0  0
   -1.0342   -1.1142    2.5689 H   0  0  0  0  0  0  0  0  0  0  0  0
   -2.4880   -2.9235    3.4255 H   0  0  0  0  0  0  0  0  0  0  0  0
   -3.7751   -4.3393    1.8482 H   0  0  0  0  0  0  0  0  0  0  0  0
   -3.6107   -3.9424   -0.5941 H   0  0  0  0  0  0  0  0  0  0  0  0
   -2.1623   -2.1358   -1.4648 H   0  0  0  0  0  0  0  0  0  0  0  0
   -3.1480    0.4555    0.5715 H   0  0  0  0  0  0  0  0  0  0  0  0
   -5.7750    4.3989    0.8533 H   0  0  0  0  0  0  0  0  0  0  0  0
   -4.0765    4.9570    0.7718 H   0  0  0  0  0  0  0  0  0  0  0  0
   -2.4397    4.4959   -0.7084 H   0  0  0  0  0  0  0  0  0  0  0  0
   -0.6878    0.0000    0.0000 H   0  0  0  0  0  0  0  0  0  0  0  0
   -0.6878    0.0000    0.0000 H   0  0  0  0  0  0  0  0  0  0  0  0
  1  2  1  0
  2  3  1  0
  2  4  1  0
  4  5  1  0
  5  6  1  0
  6  7  1  0
  7  8  1  0
  6  9  2  0
  9 10  1  0
 10 11  2  0
 11 12  1  0
 12 13  2  0
 13 14  1  0
 14 15  2  0
  9 16  1  0
 16 17  2  0
 17 18  1  0
 18 19  1  0
 19 20  1  0
 19 21  2  0
 18 22  2  0
 22 23  1  0
 23 24  2  0
 24 25  1  0
 25 26  2  0
 25  5  1  0
 15 10  1  0
 24 16  1  0
  1 29  1  0
  1 30  1  0
  1 31  1  0
  2 32  1  0
  3 33  1  0
  3 34  1  0
  3 35  1  0
  4 36  1  0
  4 37  1  0
  7 38  1  0
  7 39  1  0
  8 40  1  0
  8 41  1  0
 11 42  1  0
 12 43  1  0
 13 44  1  0
 14 45  1  0
 15 46  1  0
 17 47  1  0
 20 48  1  0
 20 49  1  0
 22 50  1  0
 27 51  1  0
 28 52  1  0
M  END
$$$$
