
     RDKit          3D

 68 72  0  0  0  0  0  0  0  0999 V2000
    7.9067   -0.8492   -3.5703 C   0  0  0  0  0  0  0  0  0  0  0  0
    6.7014   -0.1505   -2.9373 C   0  0  0  0  0  0  0  0  0  0  0  0
    6.9356    1.3595   -2.8484 C   0  0  0  0  0  0  0  0  0  0  0  0
    6.3701   -0.8314   -1.3119 S   0  0  0  0  0  0  0  0  0  0  0  0
    7.5529   -0.6020   -0.4120 O   0  0  0  0  0  0  0  0  0  0  0  0
    6.1311   -2.3117   -1.4203 O   0  0  0  0  0  0  0  0  0  0  0  0
    4.9383   -0.0687   -0.6258 C   0  0  0  0  0  0  0  0  0  0  0  0
    3.6659   -0.4600   -1.0570 C   0  0  0  0  0  0  0  0  0  0  0  0
    2.5241    0.1518   -0.5323 C   0  0  0  0  0  0  0  0  0  0  0  0
    2.6389    1.1682    0.4337 C   0  0  0  0  0  0  0  0  0  0  0  0
    1.4335    1.8245    0.9951 C   0  0  0  0  0  0  0  0  0  0  0  0
    1.3506    3.1032    1.5544 C   0  0  0  0  0  0  0  0  0  0  0  0
    0.0916    3.3576    1.9848 N   0  0  0  0  0  0  0  0  0  0  0  0
   -0.6202    2.2526    1.7056 C   0  0  0  0  0  0  0  0  0  0  0  0
   -1.9554    1.9858    1.9743 C   0  0  0  0  0  0  0  0  0  0  0  0
   -2.6624    2.8495    2.5624 O   0  0  0  0  0  0  0  0  0  0  0  0
   -2.4771    0.7652    1.5907 N   0  0  0  0  0  0  0  0  0  0  0  0
   -3.9175    0.4802    1.7824 C   0  0  0  0  0  0  0  0  0  0  0  0
   -4.8072    1.5692    1.2102 C   0  0  0  0  0  0  0  0  0  0  0  0
   -5.7363    2.2035    2.0559 C   0  0  0  0  0  0  0  0  0  0  0  0
   -6.5818    3.2010    1.5644 C   0  0  0  0  0  0  0  0  0  0  0  0
   -7.4679    3.8067    2.3928 F   0  0  0  0  0  0  0  0  0  0  0  0
   -6.5166    3.5739    0.2218 C   0  0  0  0  0  0  0  0  0  0  0  0
   -5.6077    2.9497   -0.6342 C   0  0  0  0  0  0  0  0  0  0  0  0
   -4.7535    1.9469   -0.1538 C   0  0  0  0  0  0  0  0  0  0  0  0
   -3.8294    1.3358   -1.0778 C   0  0  0  0  0  0  0  0  0  0  0  0
   -3.0881    0.8553   -1.8251 N   0  0  0  0  0  0  0  0  0  0  0  0
   -1.6301   -0.2025    1.0628 C   0  0  0  0  0  0  0  0  0  0  0  0
   -2.0839   -1.5443    0.8283 N   0  0  0  0  0  0  0  0  0  0  0  0
   -2.0527   -2.0854   -0.5374 C   0  0  0  0  0  0  0  0  0  0  0  0
   -1.9118   -3.6113   -0.5267 C   0  0  0  0  0  0  0  0  0  0  0  0
   -2.9911   -4.2857    0.3379 C   0  0  0  0  0  0  0  0  0  0  0  0
   -3.3436   -3.4971    1.6303 C   0  0  1  0  0  0  0  0  0  0  0  0
   -3.5399   -4.3957    2.7695 N   0  0  0  0  0  0  0  0  0  0  0  0
   -2.2874   -2.4367    1.9756 C   0  0  0  0  0  0  0  0  0  0  0  0
   -0.3174    0.0860    0.8139 N   0  0  0  0  0  0  0  0  0  0  0  0
    0.1540    1.3156    1.1101 C   0  0  0  0  0  0  0  0  0  0  0  0
    3.9216    1.5658    0.8512 C   0  0  0  0  0  0  0  0  0  0  0  0
    5.0617    0.9514    0.3255 C   0  0  0  0  0  0  0  0  0  0  0  0
    8.0897   -0.4473   -4.5897 H   0  0  0  0  0  0  0  0  0  0  0  0
    7.7134   -1.9392   -3.6593 H   0  0  0  0  0  0  0  0  0  0  0  0
    8.8183   -0.6942   -2.9542 H   0  0  0  0  0  0  0  0  0  0  0  0
    5.8110   -0.3331   -3.5772 H   0  0  0  0  0  0  0  0  0  0  0  0
    6.0347    1.8639   -2.4400 H   0  0  0  0  0  0  0  0  0  0  0  0
    7.1327    1.7762   -3.8591 H   0  0  0  0  0  0  0  0  0  0  0  0
    7.8032    1.5843   -2.1917 H   0  0  0  0  0  0  0  0  0  0  0  0
    3.5577   -1.2334   -1.8071 H   0  0  0  0  0  0  0  0  0  0  0  0
    1.5570   -0.1562   -0.9049 H   0  0  0  0  0  0  0  0  0  0  0  0
    2.1632    3.8126    1.6380 H   0  0  0  0  0  0  0  0  0  0  0  0
   -0.2476    4.2310    2.4458 H   0  0  0  0  0  0  0  0  0  0  0  0
   -4.2220   -0.4616    1.2831 H   0  0  0  0  0  0  0  0  0  0  0  0
   -4.1071    0.3373    2.8686 H   0  0  0  0  0  0  0  0  0  0  0  0
   -5.8049    1.9284    3.1012 H   0  0  0  0  0  0  0  0  0  0  0  0
   -7.1722    4.3469   -0.1581 H   0  0  0  0  0  0  0  0  0  0  0  0
   -5.5709    3.2500   -1.6748 H   0  0  0  0  0  0  0  0  0  0  0  0
   -1.1947   -1.6587   -1.1018 H   0  0  0  0  0  0  0  0  0  0  0  0
   -2.9906   -1.8034   -1.0609 H   0  0  0  0  0  0  0  0  0  0  0  0
   -1.9709   -3.9987   -1.5667 H   0  0  0  0  0  0  0  0  0  0  0  0
   -0.9076   -3.8739   -0.1270 H   0  0  0  0  0  0  0  0  0  0  0  0
   -2.6391   -5.3112    0.5846 H   0  0  0  0  0  0  0  0  0  0  0  0
   -3.9154   -4.4034   -0.2694 H   0  0  0  0  0  0  0  0  0  0  0  0
   -4.3004   -2.9566    1.4519 H   0  0  0  0  0  0  0  0  0  0  0  0
   -4.3041   -5.0704    2.5342 H   0  0  0  0  0  0  0  0  0  0  0  0
   -2.6673   -4.9515    2.9262 H   0  0  0  0  0  0  0  0  0  0  0  0
   -1.3226   -2.9249    2.2348 H   0  0  0  0  0  0  0  0  0  0  0  0
   -2.6270   -1.8575    2.8620 H   0  0  0  0  0  0  0  0  0  0  0  0
    4.0461    2.3422    1.5948 H   0  0  0  0  0  0  0  0  0  0  0  0
    6.0390    1.2757    0.6592 H   0  0  0  0  0  0  0  0  0  0  0  0
  1  2  1  0
  2  3  1  0
  2  4  1  0
  4  5  2  0
  4  6  2  0
  4  7  1  0
  7  8  2  0
  8  9  1  0
  9 10  2  0
 10 11  1  0
 11 12  2  0
 12 13  1  0
 13 14  1  0
 14 15  1  0
 15 16  2  0
 15 17  1  0
 17 18  1  0
 18 19  1  0
 19 20  2  0
 20 21  1  0
 21 22  1  0
 21 23  2  0
 23 24  1  0
 24 25  2  0
 25 26  1  0
 26 27  3  0
 17 28  1  0
 28 29  1  0
 29 30  1  0
 30 31  1  0
 31 32  1  0
 32 33  1  0
 33 34  1  0
 33 35  1  0
 28 36  2  0
 36 37  1  0
 10 38  1  0
 38 39  2  0
 39  7  1  0
 37 11  1  0
 37 14  2  0
 25 19  1  0
 35 29  1  0
  1 40  1  0
  1 41  1  0
  1 42  1  0
  2 43  1  0
  3 44  1  0
  3 45  1  0
  3 46  1  0
  8 47  1  0
  9 48  1  0
 12 49  1  0
 13 50  1  0
 18 51  1  0
 18 52  1  0
 20 53  1  0
 23 54  1  0
 24 55  1  0
 30 56  1  0
 30 57  1  0
 31 58  1  0
 31 59  1  0
 32 60  1  0
 32 61  1  0
 33 62  1  6
 34 63  1  0
 34 64  1  0
 35 65  1  0
 35 66  1  0
 38 67  1  0
 39 68  1  0
M  END
$$$$
