
     RDKit          3D

 27 27  0  0  0  0  0  0  0  0999 V2000
    2.7470    0.5463   -1.0105 C   0  0  0  0  0  0  0  0  0  0  0  0
    1.9986    0.4188    0.3168 C   0  0  2  0  0  0  0  0  0  0  0  0
    2.9523    0.3876    1.4290 N   0  0  0  0  0  0  0  0  0  0  0  0
    1.1217   -0.8182    0.3019 C   0  0  0  0  0  0  0  0  0  0  0  0
    1.6283   -1.9293    0.6198 O   0  0  0  0  0  0  0  0  0  0  0  0
   -0.2469   -0.7770   -0.1543 N   0  0  0  0  0  0  0  0  0  0  0  0
   -0.9655   -1.9905   -0.5141 C   0  0  0  0  0  0  0  0  0  0  0  0
   -2.2106   -1.4901   -1.1330 C   0  0  0  0  0  0  0  0  0  0  0  0
   -3.0774   -2.2211   -1.5851 O   0  0  0  0  0  0  0  0  0  0  0  0
   -2.2942   -0.0075   -1.1603 C   0  0  0  0  0  0  0  0  0  0  0  0
   -1.0200    0.4433   -0.4204 C   0  0  1  0  0  0  0  0  0  0  0  0
   -1.3786    1.1851    0.9590 B   0  0  0  0  0  0  0  0  0  0  0  0
   -2.0237    0.4481    2.0437 O   0  0  0  0  0  0  0  0  0  0  0  0
   -1.0395    2.5942    1.1401 O   0  0  0  0  0  0  0  0  0  0  0  0
    3.3988   -0.3378   -1.1794 H   0  0  0  0  0  0  0  0  0  0  0  0
    3.3785    1.4601   -1.0020 H   0  0  0  0  0  0  0  0  0  0  0  0
    2.0252    0.6266   -1.8513 H   0  0  0  0  0  0  0  0  0  0  0  0
    1.3782    1.3284    0.4396 H   0  0  0  0  0  0  0  0  0  0  0  0
    2.4195    0.2989    2.3252 H   0  0  0  0  0  0  0  0  0  0  0  0
    3.5720   -0.4514    1.3443 H   0  0  0  0  0  0  0  0  0  0  0  0
   -0.3836   -2.5825   -1.2529 H   0  0  0  0  0  0  0  0  0  0  0  0
   -1.1905   -2.5907    0.3930 H   0  0  0  0  0  0  0  0  0  0  0  0
   -3.2383    0.3308   -0.6782 H   0  0  0  0  0  0  0  0  0  0  0  0
   -2.2779    0.3425   -2.2150 H   0  0  0  0  0  0  0  0  0  0  0  0
   -0.4416    1.1282   -1.0774 H   0  0  0  0  0  0  0  0  0  0  0  0
   -2.9943    0.5713    1.8902 H   0  0  0  0  0  0  0  0  0  0  0  0
   -1.8374    3.0862    0.8204 H   0  0  0  0  0  0  0  0  0  0  0  0
  1  2  1  0
  2  3  1  0
  2  4  1  0
  4  5  2  0
  4  6  1  0
  6  7  1  0
  7  8  1  0
  8  9  2  0
  8 10  1  0
 10 11  1  0
 11 12  1  0
 12 13  1  0
 12 14  1  0
 11  6  1  0
  1 15  1  0
  1 16  1  0
  1 17  1  0
  2 18  1  1
  3 19  1  0
  3 20  1  0
  7 21  1  0
  7 22  1  0
 10 23  1  0
 10 24  1  0
 11 25  1  6
 13 26  1  0
 14 27  1  0
M  END
$$$$
