
     RDKit          3D

 65 68  0  0  0  0  0  0  0  0999 V2000
    1.7149    0.5571   -2.4555 N   0  0  0  0  0  0  0  0  0  0  0  0
    1.7901   -0.5693   -1.5223 C   0  0  1  0  0  0  0  0  0  0  0  0
    0.7267   -1.6566   -1.8302 C   0  0  0  0  0  0  0  0  0  0  0  0
   -0.7308   -1.1616   -1.7856 C   0  0  0  0  0  0  0  0  0  0  0  0
   -1.1630   -0.6836   -0.3914 C   0  0  0  0  0  0  0  0  0  0  0  0
   -2.6647   -0.3299   -0.3810 C   0  0  0  0  0  0  0  0  0  0  0  0
   -3.1681    0.2176    0.9087 N   0  0  0  0  0  0  0  0  0  0  0  0
   -2.5478    1.5033    1.3024 C   0  0  0  0  0  0  0  0  0  0  0  0
   -2.7532    2.5679    0.2547 C   0  0  0  0  0  0  0  0  0  0  0  0
   -1.6649    3.0664   -0.4818 C   0  0  0  0  0  0  0  0  0  0  0  0
   -1.8692    4.0320   -1.4721 C   0  0  0  0  0  0  0  0  0  0  0  0
   -3.1578    4.5056   -1.7339 C   0  0  0  0  0  0  0  0  0  0  0  0
   -4.2450    4.0135   -1.0063 C   0  0  0  0  0  0  0  0  0  0  0  0
   -4.0455    3.0468   -0.0159 C   0  0  0  0  0  0  0  0  0  0  0  0
   -3.1124   -0.7514    2.0257 C   0  0  0  0  0  0  0  0  0  0  0  0
   -3.9934   -1.9453    1.7627 C   0  0  0  0  0  0  0  0  0  0  0  0
   -3.4310   -3.2123    1.5327 C   0  0  0  0  0  0  0  0  0  0  0  0
   -4.2554   -4.3096    1.2653 C   0  0  0  0  0  0  0  0  0  0  0  0
   -5.6433   -4.1497    1.2234 C   0  0  0  0  0  0  0  0  0  0  0  0
   -6.2093   -2.8916    1.4474 C   0  0  0  0  0  0  0  0  0  0  0  0
   -5.3886   -1.7915    1.7146 C   0  0  0  0  0  0  0  0  0  0  0  0
    3.1892   -1.1401   -1.5641 C   0  0  0  0  0  0  0  0  0  0  0  0
    3.4589   -2.0688   -2.3748 O   0  0  0  0  0  0  0  0  0  0  0  0
    4.2418   -0.5900   -0.7520 N   0  0  0  0  0  0  0  0  0  0  0  0
    4.0893    0.5498    0.1571 C   0  0  0  0  0  0  0  0  0  0  0  0
    5.4637    0.7525    0.6740 C   0  0  0  0  0  0  0  0  0  0  0  0
    5.9045    1.7158    1.5830 C   0  0  0  0  0  0  0  0  0  0  0  0
    7.2621    1.7272    1.9419 C   0  0  0  0  0  0  0  0  0  0  0  0
    8.1496    0.7827    1.3910 C   0  0  0  0  0  0  0  0  0  0  0  0
    7.6838   -0.1779    0.4785 C   0  0  0  0  0  0  0  0  0  0  0  0
    6.3305   -0.1706    0.1364 C   0  0  0  0  0  0  0  0  0  0  0  0
    5.6222   -1.0779   -0.7977 C   0  0  0  0  0  0  0  0  0  0  0  0
    0.8778    1.1398   -2.2259 H   0  0  0  0  0  0  0  0  0  0  0  0
    1.6054    0.2004   -3.4330 H   0  0  0  0  0  0  0  0  0  0  0  0
    1.6102   -0.1975   -0.4935 H   0  0  0  0  0  0  0  0  0  0  0  0
    0.8419   -2.4928   -1.1054 H   0  0  0  0  0  0  0  0  0  0  0  0
    0.9099   -2.0753   -2.8442 H   0  0  0  0  0  0  0  0  0  0  0  0
   -1.3833   -2.0095   -2.0896 H   0  0  0  0  0  0  0  0  0  0  0  0
   -0.8829   -0.3518   -2.5305 H   0  0  0  0  0  0  0  0  0  0  0  0
   -0.5705    0.2109   -0.1247 H   0  0  0  0  0  0  0  0  0  0  0  0
   -0.9535   -1.4902    0.3406 H   0  0  0  0  0  0  0  0  0  0  0  0
   -3.2504   -1.2333   -0.6548 H   0  0  0  0  0  0  0  0  0  0  0  0
   -2.8724    0.3971   -1.1951 H   0  0  0  0  0  0  0  0  0  0  0  0
   -3.0259    1.8747    2.2358 H   0  0  0  0  0  0  0  0  0  0  0  0
   -1.4711    1.3722    1.5447 H   0  0  0  0  0  0  0  0  0  0  0  0
   -0.6611    2.7070   -0.2938 H   0  0  0  0  0  0  0  0  0  0  0  0
   -1.0284    4.4119   -2.0379 H   0  0  0  0  0  0  0  0  0  0  0  0
   -3.3141    5.2527   -2.5013 H   0  0  0  0  0  0  0  0  0  0  0  0
   -5.2428    4.3791   -1.2116 H   0  0  0  0  0  0  0  0  0  0  0  0
   -4.8961    2.6669    0.5366 H   0  0  0  0  0  0  0  0  0  0  0  0
   -2.0659   -1.0564    2.2408 H   0  0  0  0  0  0  0  0  0  0  0  0
   -3.4881   -0.2736    2.9578 H   0  0  0  0  0  0  0  0  0  0  0  0
   -2.3572   -3.3501    1.5556 H   0  0  0  0  0  0  0  0  0  0  0  0
   -3.8181   -5.2837    1.0883 H   0  0  0  0  0  0  0  0  0  0  0  0
   -6.2797   -5.0001    1.0154 H   0  0  0  0  0  0  0  0  0  0  0  0
   -7.2840   -2.7683    1.4117 H   0  0  0  0  0  0  0  0  0  0  0  0
   -5.8376   -0.8199    1.8805 H   0  0  0  0  0  0  0  0  0  0  0  0
    3.4005    0.2954    0.9904 H   0  0  0  0  0  0  0  0  0  0  0  0
    3.7450    1.4485   -0.3976 H   0  0  0  0  0  0  0  0  0  0  0  0
    5.2161    2.4379    2.0025 H   0  0  0  0  0  0  0  0  0  0  0  0
    7.6275    2.4646    2.6448 H   0  0  0  0  0  0  0  0  0  0  0  0
    9.1947    0.7969    1.6717 H   0  0  0  0  0  0  0  0  0  0  0  0
    8.3597   -0.9068    0.0505 H   0  0  0  0  0  0  0  0  0  0  0  0
    5.6744   -2.1282   -0.4397 H   0  0  0  0  0  0  0  0  0  0  0  0
    6.0358   -0.9794   -1.8241 H   0  0  0  0  0  0  0  0  0  0  0  0
  1  2  1  0
  2  3  1  0
  3  4  1  0
  4  5  1  0
  5  6  1  0
  6  7  1  0
  7  8  1  0
  8  9  1  0
  9 10  2  0
 10 11  1  0
 11 12  2  0
 12 13  1  0
 13 14  2  0
  7 15  1  0
 15 16  1  0
 16 17  2  0
 17 18  1  0
 18 19  2  0
 19 20  1  0
 20 21  2  0
  2 22  1  0
 22 23  2  0
 22 24  1  0
 24 25  1  0
 25 26  1  0
 26 27  2  0
 27 28  1  0
 28 29  2  0
 29 30  1  0
 30 31  2  0
 31 32  1  0
 14  9  1  0
 21 16  1  0
 32 24  1  0
 31 26  1  0
  1 33  1  0
  1 34  1  0
  2 35  1  1
  3 36  1  0
  3 37  1  0
  4 38  1  0
  4 39  1  0
  5 40  1  0
  5 41  1  0
  6 42  1  0
  6 43  1  0
  8 44  1  0
  8 45  1  0
 10 46  1  0
 11 47  1  0
 12 48  1  0
 13 49  1  0
 14 50  1  0
 15 51  1  0
 15 52  1  0
 17 53  1  0
 18 54  1  0
 19 55  1  0
 20 56  1  0
 21 57  1  0
 25 58  1  0
 25 59  1  0
 27 60  1  0
 28 61  1  0
 29 62  1  0
 30 63  1  0
 32 64  1  0
 32 65  1  0
M  END
$$$$
