
     RDKit          3D

 49 52  0  0  0  0  0  0  0  0999 V2000
    0.9706    6.4369   -0.0684 C   0  0  0  0  0  0  0  0  0  0  0  0
    0.8985    4.9527   -0.2158 C   0  0  0  0  0  0  0  0  0  0  0  0
    1.7056    4.1921   -1.0613 C   0  0  0  0  0  0  0  0  0  0  0  0
    1.2361    2.9024   -0.9228 C   0  0  0  0  0  0  0  0  0  0  0  0
    1.6188    1.7016   -1.5017 C   0  0  0  0  0  0  0  0  0  0  0  0
    2.5730    1.6843   -2.3274 O   0  0  0  0  0  0  0  0  0  0  0  0
    0.9414    0.5481   -1.1514 N   0  0  0  0  0  0  0  0  0  0  0  0
    1.3424   -0.7464   -1.7517 C   0  0  0  0  0  0  0  0  0  0  0  0
    1.6343   -1.8100   -0.7113 C   0  0  0  0  0  0  0  0  0  0  0  0
    0.9597   -3.0430   -0.7914 C   0  0  0  0  0  0  0  0  0  0  0  0
    1.2066   -4.0512    0.1426 C   0  0  0  0  0  0  0  0  0  0  0  0
    2.1379   -3.8488    1.1608 C   0  0  0  0  0  0  0  0  0  0  0  0
    2.8344   -2.6416    1.2418 C   0  0  0  0  0  0  0  0  0  0  0  0
    2.5988   -1.6221    0.3084 C   0  0  0  0  0  0  0  0  0  0  0  0
    3.3665   -0.4052    0.4140 C   0  0  0  0  0  0  0  0  0  0  0  0
    3.9849    0.5690    0.5028 N   0  0  0  0  0  0  0  0  0  0  0  0
   -0.1361    0.6307   -0.2744 C   0  0  0  0  0  0  0  0  0  0  0  0
   -0.8963   -0.5296    0.0928 N   0  0  0  0  0  0  0  0  0  0  0  0
   -0.8300   -1.0093    1.4791 C   0  0  0  0  0  0  0  0  0  0  0  0
   -2.2131   -0.9115    2.1265 C   0  0  0  0  0  0  0  0  0  0  0  0
   -3.3193   -1.5913    1.2854 C   0  0  0  0  0  0  0  0  0  0  0  0
   -2.8503   -2.0522   -0.1126 C   0  0  1  0  0  0  0  0  0  0  0  0
   -4.0069   -2.3692   -0.9512 N   0  0  0  0  0  0  0  0  0  0  0  0
   -1.9949   -0.9621   -0.7829 C   0  0  0  0  0  0  0  0  0  0  0  0
   -0.4906    1.8288    0.2813 N   0  0  0  0  0  0  0  0  0  0  0  0
    0.2037    2.9375   -0.0472 C   0  0  0  0  0  0  0  0  0  0  0  0
   -0.0309    4.1812    0.3968 N   0  0  0  0  0  0  0  0  0  0  0  0
    0.3316    6.9159   -0.8389 H   0  0  0  0  0  0  0  0  0  0  0  0
    2.0181    6.7832   -0.1941 H   0  0  0  0  0  0  0  0  0  0  0  0
    0.6139    6.7359    0.9395 H   0  0  0  0  0  0  0  0  0  0  0  0
    2.5125    4.5382   -1.6942 H   0  0  0  0  0  0  0  0  0  0  0  0
    0.5512   -1.0743   -2.4568 H   0  0  0  0  0  0  0  0  0  0  0  0
    2.2580   -0.6514   -2.3724 H   0  0  0  0  0  0  0  0  0  0  0  0
    0.2316   -3.2232   -1.5722 H   0  0  0  0  0  0  0  0  0  0  0  0
    0.6725   -4.9904    0.0777 H   0  0  0  0  0  0  0  0  0  0  0  0
    2.3258   -4.6312    1.8846 H   0  0  0  0  0  0  0  0  0  0  0  0
    3.5639   -2.5050    2.0313 H   0  0  0  0  0  0  0  0  0  0  0  0
   -0.0956   -0.4200    2.0717 H   0  0  0  0  0  0  0  0  0  0  0  0
   -0.4938   -2.0669    1.4911 H   0  0  0  0  0  0  0  0  0  0  0  0
   -2.1753   -1.3684    3.1392 H   0  0  0  0  0  0  0  0  0  0  0  0
   -2.4629    0.1645    2.2567 H   0  0  0  0  0  0  0  0  0  0  0  0
   -3.7073   -2.4748    1.8380 H   0  0  0  0  0  0  0  0  0  0  0  0
   -4.1670   -0.8796    1.1717 H   0  0  0  0  0  0  0  0  0  0  0  0
   -2.2265   -2.9688    0.0034 H   0  0  0  0  0  0  0  0  0  0  0  0
   -3.6585   -2.7479   -1.8621 H   0  0  0  0  0  0  0  0  0  0  0  0
   -4.5357   -3.1502   -0.4985 H   0  0  0  0  0  0  0  0  0  0  0  0
   -2.6385   -0.0867   -1.0226 H   0  0  0  0  0  0  0  0  0  0  0  0
   -1.5852   -1.3586   -1.7333 H   0  0  0  0  0  0  0  0  0  0  0  0
   -0.7778    4.4876    1.0594 H   0  0  0  0  0  0  0  0  0  0  0  0
  1  2  1  0
  2  3  2  0
  3  4  1  0
  4  5  1  0
  5  6  2  0
  5  7  1  0
  7  8  1  0
  8  9  1  0
  9 10  2  0
 10 11  1  0
 11 12  2  0
 12 13  1  0
 13 14  2  0
 14 15  1  0
 15 16  3  0
  7 17  1  0
 17 18  1  0
 18 19  1  0
 19 20  1  0
 20 21  1  0
 21 22  1  0
 22 23  1  0
 22 24  1  0
 17 25  2  0
 25 26  1  0
 26 27  1  0
 27  2  1  0
 26  4  2  0
 14  9  1  0
 24 18  1  0
  1 28  1  0
  1 29  1  0
  1 30  1  0
  3 31  1  0
  8 32  1  0
  8 33  1  0
 10 34  1  0
 11 35  1  0
 12 36  1  0
 13 37  1  0
 19 38  1  0
 19 39  1  0
 20 40  1  0
 20 41  1  0
 21 42  1  0
 21 43  1  0
 22 44  1  1
 23 45  1  0
 23 46  1  0
 24 47  1  0
 24 48  1  0
 27 49  1  0
M  END
$$$$
