
     RDKit          3D

 39 40  0  0  0  0  0  0  0  0999 V2000
    4.9544    0.8807    0.8591 C   0  0  0  0  0  0  0  0  0  0  0  0
    4.1162   -0.3604    0.5266 C   0  0  0  0  0  0  0  0  0  0  0  0
    3.1865   -0.2368   -0.7187 C   0  0  2  0  0  0  0  0  0  0  0  0
    3.8303    0.5581   -1.8691 C   0  0  0  0  0  0  0  0  0  0  0  0
    1.7308    0.2584   -0.4164 C   0  0  2  0  0  0  0  0  0  0  0  0
    1.6898    1.4820    0.3872 N   0  0  0  0  0  0  0  0  0  0  0  0
    0.8563   -0.7989    0.2311 C   0  0  0  0  0  0  0  0  0  0  0  0
    1.3825   -1.7920    0.8040 O   0  0  0  0  0  0  0  0  0  0  0  0
   -0.5768   -0.6714    0.2315 N   0  0  0  0  0  0  0  0  0  0  0  0
   -1.4642   -1.6390    0.8803 C   0  0  0  0  0  0  0  0  0  0  0  0
   -2.8137   -1.0817    0.6234 C   0  0  0  0  0  0  0  0  0  0  0  0
   -4.0438   -1.6015    1.0214 C   0  0  0  0  0  0  0  0  0  0  0  0
   -5.2126   -0.9082    0.6699 C   0  0  0  0  0  0  0  0  0  0  0  0
   -5.1432    0.2950   -0.0741 C   0  0  0  0  0  0  0  0  0  0  0  0
   -6.3467    0.9989   -0.4300 N   0  0  0  0  0  0  0  0  0  0  0  0
   -6.2934    2.0601   -1.0857 O   0  0  0  0  0  0  0  0  0  0  0  0
   -7.5780    0.5135   -0.0531 O   0  0  0  0  0  0  0  0  0  0  0  0
   -3.8784    0.7933   -0.4612 C   0  0  0  0  0  0  0  0  0  0  0  0
   -2.7331    0.0842   -0.0982 C   0  0  0  0  0  0  0  0  0  0  0  0
   -1.3212    0.4234   -0.3978 C   0  0  0  0  0  0  0  0  0  0  0  0
    5.7169    1.0600    0.0725 H   0  0  0  0  0  0  0  0  0  0  0  0
    5.4906    0.7134    1.8170 H   0  0  0  0  0  0  0  0  0  0  0  0
    4.3268    1.7853    0.9699 H   0  0  0  0  0  0  0  0  0  0  0  0
    3.5267   -0.6362    1.4252 H   0  0  0  0  0  0  0  0  0  0  0  0
    4.8261   -1.1985    0.3514 H   0  0  0  0  0  0  0  0  0  0  0  0
    3.0792   -1.2700   -1.1215 H   0  0  0  0  0  0  0  0  0  0  0  0
    3.2121    0.4715   -2.7880 H   0  0  0  0  0  0  0  0  0  0  0  0
    4.8370    0.1485   -2.0994 H   0  0  0  0  0  0  0  0  0  0  0  0
    3.9282    1.6334   -1.6142 H   0  0  0  0  0  0  0  0  0  0  0  0
    1.2575    0.4860   -1.3961 H   0  0  0  0  0  0  0  0  0  0  0  0
    2.0752    1.3008    1.3415 H   0  0  0  0  0  0  0  0  0  0  0  0
    2.2555    2.2283   -0.0755 H   0  0  0  0  0  0  0  0  0  0  0  0
   -1.3583   -2.6396    0.4096 H   0  0  0  0  0  0  0  0  0  0  0  0
   -1.2607   -1.6816    1.9716 H   0  0  0  0  0  0  0  0  0  0  0  0
   -4.0977   -2.5209    1.5900 H   0  0  0  0  0  0  0  0  0  0  0  0
   -6.1686   -1.3106    0.9783 H   0  0  0  0  0  0  0  0  0  0  0  0
   -3.7846    1.7093   -1.0304 H   0  0  0  0  0  0  0  0  0  0  0  0
   -1.1521    0.4311   -1.4954 H   0  0  0  0  0  0  0  0  0  0  0  0
   -1.0516    1.3967    0.0635 H   0  0  0  0  0  0  0  0  0  0  0  0
  1  2  1  0
  2  3  1  0
  3  4  1  0
  3  5  1  0
  5  6  1  0
  5  7  1  0
  7  8  2  0
  7  9  1  0
  9 10  1  0
 10 11  1  0
 11 12  2  0
 12 13  1  0
 13 14  2  0
 14 15  1  0
 15 16  2  0
 15 17  1  0
 14 18  1  0
 18 19  2  0
 19 20  1  0
 20  9  1  0
 19 11  1  0
  1 21  1  0
  1 22  1  0
  1 23  1  0
  2 24  1  0
  2 25  1  0
  3 26  1  6
  4 27  1  0
  4 28  1  0
  4 29  1  0
  5 30  1  6
  6 31  1  0
  6 32  1  0
 10 33  1  0
 10 34  1  0
 12 35  1  0
 13 36  1  0
 18 37  1  0
 20 38  1  0
 20 39  1  0
M  CHG  2  15   1  17  -1
M  END
$$$$
