
     RDKit          3D

 55 57  0  0  0  0  0  0  0  0999 V2000
   -0.8052    5.1988    1.6131 C   0  0  0  0  0  0  0  0  0  0  0  0
   -0.5799    4.2579    0.4671 C   0  0  0  0  0  0  0  0  0  0  0  0
   -0.4582    4.7522   -0.8411 C   0  0  0  0  0  0  0  0  0  0  0  0
   -0.2858    3.8720   -1.9131 C   0  0  0  0  0  0  0  0  0  0  0  0
   -0.2481    2.4935   -1.6899 C   0  0  0  0  0  0  0  0  0  0  0  0
   -0.3889    1.9881   -0.3898 C   0  0  0  0  0  0  0  0  0  0  0  0
   -0.3612    0.5259   -0.1539 C   0  0  0  0  0  0  0  0  0  0  0  0
   -1.5763   -0.2005   -0.0230 C   0  0  0  0  0  0  0  0  0  0  0  0
   -2.9087    0.5241   -0.1272 C   0  0  0  0  0  0  0  0  0  0  0  0
   -3.2941    1.0558    1.1761 N   0  0  0  0  0  0  0  0  0  0  0  0
   -1.5073   -1.5925    0.2584 C   0  0  0  0  0  0  0  0  0  0  0  0
   -2.7207   -2.4747    0.4555 C   0  0  0  0  0  0  0  0  0  0  0  0
   -2.9732   -3.3893   -0.7633 C   0  0  0  0  0  0  0  0  0  0  0  0
   -4.0431   -4.4361   -0.4288 C   0  0  0  0  0  0  0  0  0  0  0  0
   -3.3936   -2.5895   -2.0041 C   0  0  0  0  0  0  0  0  0  0  0  0
   -0.2948   -2.1989    0.3447 N   0  0  0  0  0  0  0  0  0  0  0  0
    0.8763   -1.5363    0.1958 C   0  0  0  0  0  0  0  0  0  0  0  0
    2.0808   -2.2379    0.3002 C   0  0  0  0  0  0  0  0  0  0  0  0
    3.2989   -1.5711    0.1653 C   0  0  0  0  0  0  0  0  0  0  0  0
    3.3256   -0.1852   -0.0719 C   0  0  0  0  0  0  0  0  0  0  0  0
    4.5233    0.5360   -0.2102 O   0  0  0  0  0  0  0  0  0  0  0  0
    5.8353   -0.0079   -0.0668 C   0  0  0  0  0  0  0  0  0  0  0  0
    6.1210   -0.3297    1.3695 C   0  0  0  0  0  0  0  0  0  0  0  0
    6.6590   -1.5999    1.7368 N   0  0  0  0  0  0  0  0  0  0  0  0
    5.9090    0.5384    2.2576 O   0  0  0  0  0  0  0  0  0  0  0  0
    2.1179    0.5150   -0.1791 C   0  0  0  0  0  0  0  0  0  0  0  0
    0.8784   -0.1495   -0.0515 C   0  0  0  0  0  0  0  0  0  0  0  0
   -0.5582    2.8718    0.6861 C   0  0  0  0  0  0  0  0  0  0  0  0
   -0.3302    6.1828    1.4128 H   0  0  0  0  0  0  0  0  0  0  0  0
   -0.3652    4.7892    2.5473 H   0  0  0  0  0  0  0  0  0  0  0  0
   -1.8955    5.3461    1.7604 H   0  0  0  0  0  0  0  0  0  0  0  0
   -0.4959    5.8178   -1.0307 H   0  0  0  0  0  0  0  0  0  0  0  0
   -0.1856    4.2589   -2.9190 H   0  0  0  0  0  0  0  0  0  0  0  0
   -0.1165    1.8194   -2.5274 H   0  0  0  0  0  0  0  0  0  0  0  0
   -3.7099   -0.1259   -0.5301 H   0  0  0  0  0  0  0  0  0  0  0  0
   -2.8415    1.3589   -0.8564 H   0  0  0  0  0  0  0  0  0  0  0  0
   -4.1781    1.6000    1.0506 H   0  0  0  0  0  0  0  0  0  0  0  0
   -3.5242    0.2541    1.8065 H   0  0  0  0  0  0  0  0  0  0  0  0
   -2.5168   -3.1151    1.3418 H   0  0  0  0  0  0  0  0  0  0  0  0
   -3.6356   -1.9074    0.7154 H   0  0  0  0  0  0  0  0  0  0  0  0
   -2.0334   -3.9348   -1.0041 H   0  0  0  0  0  0  0  0  0  0  0  0
   -5.0064   -3.9442   -0.1735 H   0  0  0  0  0  0  0  0  0  0  0  0
   -4.2038   -5.1122   -1.2956 H   0  0  0  0  0  0  0  0  0  0  0  0
   -3.7174   -5.0563    0.4334 H   0  0  0  0  0  0  0  0  0  0  0  0
   -4.3505   -2.0558   -1.8218 H   0  0  0  0  0  0  0  0  0  0  0  0
   -2.6104   -1.8516   -2.2776 H   0  0  0  0  0  0  0  0  0  0  0  0
   -3.5299   -3.2731   -2.8691 H   0  0  0  0  0  0  0  0  0  0  0  0
    2.0749   -3.3047    0.4886 H   0  0  0  0  0  0  0  0  0  0  0  0
    4.2111   -2.1440    0.2487 H   0  0  0  0  0  0  0  0  0  0  0  0
    6.5705    0.7508   -0.4066 H   0  0  0  0  0  0  0  0  0  0  0  0
    5.9542   -0.9008   -0.7171 H   0  0  0  0  0  0  0  0  0  0  0  0
    6.8612   -1.8158    2.7382 H   0  0  0  0  0  0  0  0  0  0  0  0
    6.8553   -2.3275    1.0143 H   0  0  0  0  0  0  0  0  0  0  0  0
    2.1644    1.5811   -0.3600 H   0  0  0  0  0  0  0  0  0  0  0  0
   -0.6727    2.4796    1.6900 H   0  0  0  0  0  0  0  0  0  0  0  0
  1  2  1  0
  2  3  2  0
  3  4  1  0
  4  5  2  0
  5  6  1  0
  6  7  1  0
  7  8  2  0
  8  9  1  0
  9 10  1  0
  8 11  1  0
 11 12  1  0
 12 13  1  0
 13 14  1  0
 13 15  1  0
 11 16  2  0
 16 17  1  0
 17 18  2  0
 18 19  1  0
 19 20  2  0
 20 21  1  0
 21 22  1  0
 22 23  1  0
 23 24  1  0
 23 25  2  0
 20 26  1  0
 26 27  2  0
  6 28  2  0
 28  2  1  0
 27  7  1  0
 27 17  1  0
  1 29  1  0
  1 30  1  0
  1 31  1  0
  3 32  1  0
  4 33  1  0
  5 34  1  0
  9 35  1  0
  9 36  1  0
 10 37  1  0
 10 38  1  0
 12 39  1  0
 12 40  1  0
 13 41  1  0
 14 42  1  0
 14 43  1  0
 14 44  1  0
 15 45  1  0
 15 46  1  0
 15 47  1  0
 18 48  1  0
 19 49  1  0
 22 50  1  0
 22 51  1  0
 24 52  1  0
 24 53  1  0
 26 54  1  0
 28 55  1  0
M  END
$$$$
