
     RDKit          3D

 58 60  0  0  0  0  0  0  0  0999 V2000
    2.2326   -0.8245    2.1328 N   0  0  0  0  0  0  0  0  0  0  0  0
    1.9590   -1.1829    0.7368 C   0  0  1  0  0  0  0  0  0  0  0  0
    1.2717   -0.0133    0.0020 C   0  0  0  0  0  0  0  0  0  0  0  0
   -0.0862    0.2828    0.5823 C   0  0  0  0  0  0  0  0  0  0  0  0
   -0.1499    1.0466    1.5846 O   0  0  0  0  0  0  0  0  0  0  0  0
   -1.3027   -0.2631    0.0224 N   0  0  0  0  0  0  0  0  0  0  0  0
   -1.3179   -1.5657   -0.6769 C   0  0  0  0  0  0  0  0  0  0  0  0
   -2.2242   -1.5030   -1.9139 C   0  0  0  0  0  0  0  0  0  0  0  0
   -3.4874   -0.8679   -1.5648 N   0  0  0  0  0  0  0  0  0  0  0  0
   -4.6174   -0.9572   -2.2467 N   0  0  0  0  0  0  0  0  0  0  0  0
   -5.5469   -0.1902   -1.6884 N   0  0  0  0  0  0  0  0  0  0  0  0
   -4.9738    0.4140   -0.6237 C   0  0  0  0  0  0  0  0  0  0  0  0
   -5.6620    1.3482    0.2760 C   0  0  0  0  0  0  0  0  0  0  0  0
   -6.9708    1.7619    0.1871 C   0  0  0  0  0  0  0  0  0  0  0  0
   -7.2222    2.6172    1.1962 N   0  0  0  0  0  0  0  0  0  0  0  0
   -6.0469    2.6854    1.8577 C   0  0  0  0  0  0  0  0  0  0  0  0
   -5.1180    1.9322    1.3132 O   0  0  0  0  0  0  0  0  0  0  0  0
   -3.6631   -0.0071   -0.5571 C   0  0  0  0  0  0  0  0  0  0  0  0
   -2.5875    0.3409    0.4250 C   0  0  0  0  0  0  0  0  0  0  0  0
    3.2335   -1.6692    0.0020 C   0  0  0  0  0  0  0  0  0  0  0  0
    4.3280   -0.6287   -0.0859 C   0  0  0  0  0  0  0  0  0  0  0  0
    5.2724   -0.5151    0.9497 C   0  0  0  0  0  0  0  0  0  0  0  0
    6.2814    0.4505    0.8858 C   0  0  0  0  0  0  0  0  0  0  0  0
    7.1830    0.5533    1.8935 F   0  0  0  0  0  0  0  0  0  0  0  0
    6.3605    1.3083   -0.2148 C   0  0  0  0  0  0  0  0  0  0  0  0
    7.3387    2.2452   -0.2782 F   0  0  0  0  0  0  0  0  0  0  0  0
    5.4329    1.1980   -1.2538 C   0  0  0  0  0  0  0  0  0  0  0  0
    4.4210    0.2341   -1.1956 C   0  0  0  0  0  0  0  0  0  0  0  0
    3.5413    0.1394   -2.2245 F   0  0  0  0  0  0  0  0  0  0  0  0
   -2.6403   -1.4717    0.6307 O   0  0  0  0  0  0  0  0  0  0  0  0
   -1.8956   -0.5789    0.1462 C   0  0  0  0  0  0  0  0  0  0  0  0
   -2.4560    0.4628   -0.5891 O   0  0  0  0  0  0  0  0  0  0  0  0
   -0.4429   -0.6514    0.3655 C   0  0  0  0  0  0  0  0  0  0  0  0
    0.3949    0.2688   -0.1256 C   0  0  0  0  0  0  0  0  0  0  0  0
    1.8497    0.2040    0.0890 C   0  0  0  0  0  0  0  0  0  0  0  0
    2.3675   -0.7347    0.7532 O   0  0  0  0  0  0  0  0  0  0  0  0
    2.6615    1.1958   -0.4512 O   0  0  0  0  0  0  0  0  0  0  0  0
    2.7218   -1.6209    2.6022 H   0  0  0  0  0  0  0  0  0  0  0  0
    2.8626    0.0088    2.1708 H   0  0  0  0  0  0  0  0  0  0  0  0
    1.2546   -2.0434    0.7464 H   0  0  0  0  0  0  0  0  0  0  0  0
    1.1765   -0.2299   -1.0824 H   0  0  0  0  0  0  0  0  0  0  0  0
    1.8998    0.9003    0.0839 H   0  0  0  0  0  0  0  0  0  0  0  0
   -0.3103   -1.8854   -1.0037 H   0  0  0  0  0  0  0  0  0  0  0  0
   -1.7026   -2.3414    0.0200 H   0  0  0  0  0  0  0  0  0  0  0  0
   -1.7261   -0.9072   -2.7087 H   0  0  0  0  0  0  0  0  0  0  0  0
   -2.4099   -2.5294   -2.2967 H   0  0  0  0  0  0  0  0  0  0  0  0
   -7.6958    1.4642   -0.5589 H   0  0  0  0  0  0  0  0  0  0  0  0
   -5.8896    3.2934    2.7384 H   0  0  0  0  0  0  0  0  0  0  0  0
   -2.4922    1.4479    0.4578 H   0  0  0  0  0  0  0  0  0  0  0  0
   -2.8726   -0.0310    1.4320 H   0  0  0  0  0  0  0  0  0  0  0  0
    3.6259   -2.5711    0.5211 H   0  0  0  0  0  0  0  0  0  0  0  0
    2.9559   -2.0111   -1.0189 H   0  0  0  0  0  0  0  0  0  0  0  0
    5.2240   -1.1733    1.8084 H   0  0  0  0  0  0  0  0  0  0  0  0
    5.4991    1.8597   -2.1080 H   0  0  0  0  0  0  0  0  0  0  0  0
   -3.4564    0.5130   -0.7403 H   0  0  0  0  0  0  0  0  0  0  0  0
   -0.0578   -1.4825    0.9448 H   0  0  0  0  0  0  0  0  0  0  0  0
    0.0098    1.0994   -0.7046 H   0  0  0  0  0  0  0  0  0  0  0  0
    3.6657    1.1752   -0.3185 H   0  0  0  0  0  0  0  0  0  0  0  0
  1  2  1  0
  2  3  1  0
  3  4  1  0
  4  5  2  0
  4  6  1  0
  6  7  1  0
  7  8  1  0
  8  9  1  0
  9 10  1  0
 10 11  2  0
 11 12  1  0
 12 13  1  0
 13 14  2  0
 14 15  1  0
 15 16  2  0
 16 17  1  0
 12 18  2  0
 18 19  1  0
  2 20  1  0
 20 21  1  0
 21 22  2  0
 22 23  1  0
 23 24  1  0
 23 25  2  0
 25 26  1  0
 25 27  1  0
 27 28  2  0
 28 29  1  0
 30 31  2  0
 31 32  1  0
 31 33  1  0
 33 34  2  0
 34 35  1  0
 35 36  2  0
 35 37  1  0
 19  6  1  0
 28 21  1  0
 18  9  1  0
 17 13  1  0
  1 38  1  0
  1 39  1  0
  2 40  1  1
  3 41  1  0
  3 42  1  0
  7 43  1  0
  7 44  1  0
  8 45  1  0
  8 46  1  0
 14 47  1  0
 16 48  1  0
 19 49  1  0
 19 50  1  0
 20 51  1  0
 20 52  1  0
 22 53  1  0
 27 54  1  0
 32 55  1  0
 33 56  1  0
 34 57  1  0
 37 58  1  0
M  END
$$$$
