
     RDKit          3D

 47 49  0  0  0  0  0  0  0  0999 V2000
   -7.5121   -1.1342    0.6275 N   0  0  0  0  0  0  0  0  0  0  0  0
   -6.3645   -0.8742   -0.1805 C   0  0  0  0  0  0  0  0  0  0  0  0
   -6.0208   -1.7101   -1.0596 O   0  0  0  0  0  0  0  0  0  0  0  0
   -5.5933    0.4117   -0.0158 C   0  0  2  0  0  0  0  0  0  0  0  0
   -5.9091    1.3844   -1.1522 C   0  0  0  0  0  0  0  0  0  0  0  0
   -4.7638    1.2308   -2.1485 C   0  0  0  0  0  0  0  0  0  0  0  0
   -3.5857    0.7039   -1.3387 C   0  0  0  0  0  0  0  0  0  0  0  0
   -4.1585    0.1706   -0.1104 N   0  0  0  0  0  0  0  0  0  0  0  0
   -3.4224   -0.6072    0.8551 C   0  0  0  0  0  0  0  0  0  0  0  0
   -4.0461   -1.2735    1.7252 O   0  0  0  0  0  0  0  0  0  0  0  0
   -1.9484   -0.6699    0.8396 C   0  0  0  0  0  0  0  0  0  0  0  0
   -1.1802    0.5037    0.8423 C   0  0  0  0  0  0  0  0  0  0  0  0
    0.2160    0.4342    0.8424 C   0  0  0  0  0  0  0  0  0  0  0  0
    0.8659   -0.8128    0.8655 C   0  0  0  0  0  0  0  0  0  0  0  0
    2.3006   -0.9118    0.8414 N   0  0  0  0  0  0  0  0  0  0  0  0
    3.1785    0.0621    1.4312 C   0  0  0  0  0  0  0  0  0  0  0  0
    2.7479    0.8192    2.3441 O   0  0  0  0  0  0  0  0  0  0  0  0
    4.5998    0.1541    1.0168 C   0  0  0  0  0  0  0  0  0  0  0  0
    5.5374    0.8002    1.8414 C   0  0  0  0  0  0  0  0  0  0  0  0
    6.8775    0.8960    1.4555 C   0  0  0  0  0  0  0  0  0  0  0  0
    7.3118    0.3375    0.2423 C   0  0  0  0  0  0  0  0  0  0  0  0
    8.7469    0.4853   -0.1966 C   0  0  0  0  0  0  0  0  0  0  0  0
    8.8874    1.6651   -0.9032 F   0  0  0  0  0  0  0  0  0  0  0  0
    9.1217   -0.5729   -1.0065 F   0  0  0  0  0  0  0  0  0  0  0  0
    9.5928    0.5120    0.8987 F   0  0  0  0  0  0  0  0  0  0  0  0
    6.3693   -0.2748   -0.6000 C   0  0  0  0  0  0  0  0  0  0  0  0
    5.0291   -0.3718   -0.2146 C   0  0  0  0  0  0  0  0  0  0  0  0
    0.0942   -1.9842    0.8634 C   0  0  0  0  0  0  0  0  0  0  0  0
   -1.3019   -1.9140    0.8652 C   0  0  0  0  0  0  0  0  0  0  0  0
   -8.0519   -2.0196    0.5055 H   0  0  0  0  0  0  0  0  0  0  0  0
   -7.8281   -0.4446    1.3448 H   0  0  0  0  0  0  0  0  0  0  0  0
   -5.8302    0.8827    0.9637 H   0  0  0  0  0  0  0  0  0  0  0  0
   -6.8946    1.1922   -1.6318 H   0  0  0  0  0  0  0  0  0  0  0  0
   -5.9068    2.4237   -0.7553 H   0  0  0  0  0  0  0  0  0  0  0  0
   -5.0464    0.4858   -2.9245 H   0  0  0  0  0  0  0  0  0  0  0  0
   -4.5216    2.1979   -2.6403 H   0  0  0  0  0  0  0  0  0  0  0  0
   -3.0501   -0.0939   -1.8976 H   0  0  0  0  0  0  0  0  0  0  0  0
   -2.8923    1.5381   -1.1063 H   0  0  0  0  0  0  0  0  0  0  0  0
   -1.6589    1.4744    0.8625 H   0  0  0  0  0  0  0  0  0  0  0  0
    0.7836    1.3545    0.8095 H   0  0  0  0  0  0  0  0  0  0  0  0
    2.7227   -1.7946    0.4746 H   0  0  0  0  0  0  0  0  0  0  0  0
    5.2361    1.2299    2.7887 H   0  0  0  0  0  0  0  0  0  0  0  0
    7.5744    1.4092    2.1063 H   0  0  0  0  0  0  0  0  0  0  0  0
    6.6676   -0.6731   -1.5618 H   0  0  0  0  0  0  0  0  0  0  0  0
    4.3287   -0.8375   -0.8953 H   0  0  0  0  0  0  0  0  0  0  0  0
    0.5763   -2.9537    0.8707 H   0  0  0  0  0  0  0  0  0  0  0  0
   -1.8786   -2.8310    0.8720 H   0  0  0  0  0  0  0  0  0  0  0  0
  1  2  1  0
  2  3  2  0
  2  4  1  0
  4  5  1  0
  5  6  1  0
  6  7  1  0
  7  8  1  0
  8  9  1  0
  9 10  2  0
  9 11  1  0
 11 12  2  0
 12 13  1  0
 13 14  2  0
 14 15  1  0
 15 16  1  0
 16 17  2  0
 16 18  1  0
 18 19  2  0
 19 20  1  0
 20 21  2  0
 21 22  1  0
 22 23  1  0
 22 24  1  0
 22 25  1  0
 21 26  1  0
 26 27  2  0
 14 28  1  0
 28 29  2  0
  8  4  1  0
 29 11  1  0
 27 18  1  0
  1 30  1  0
  1 31  1  0
  4 32  1  1
  5 33  1  0
  5 34  1  0
  6 35  1  0
  6 36  1  0
  7 37  1  0
  7 38  1  0
 12 39  1  0
 13 40  1  0
 15 41  1  0
 19 42  1  0
 20 43  1  0
 26 44  1  0
 27 45  1  0
 28 46  1  0
 29 47  1  0
M  END
$$$$
