
     RDKit          3D

 74 78  0  0  0  0  0  0  0  0999 V2000
    2.2070    0.0495    1.7718 N   0  0  0  0  0  0  0  0  0  0  0  0
    1.9412   -0.0324    0.3299 C   0  0  1  0  0  0  0  0  0  0  0  0
    1.8392    1.3832   -0.2958 C   0  0  0  0  0  0  0  0  0  0  0  0
    1.1698    1.4173   -1.6524 C   0  0  0  0  0  0  0  0  0  0  0  0
    0.6547    0.3693   -2.1302 O   0  0  0  0  0  0  0  0  0  0  0  0
    1.1174    2.6324   -2.4244 N   0  0  0  0  0  0  0  0  0  0  0  0
    1.1331    2.6021   -3.8786 C   0  0  0  0  0  0  0  0  0  0  0  0
    1.3346    4.0454   -4.3232 C   0  0  0  0  0  0  0  0  0  0  0  0
    1.8266    4.7871   -3.0844 C   0  0  0  0  0  0  0  0  0  0  0  0
    1.2973    3.9827   -1.8955 C   0  0  1  0  0  0  0  0  0  0  0  0
   -0.0456    4.5660   -1.4046 C   0  0  0  0  0  0  0  0  0  0  0  0
   -0.5451    3.8329   -0.2439 N   0  0  0  0  0  0  0  0  0  0  0  0
   -1.5044    2.7686   -0.3618 C   0  0  0  0  0  0  0  0  0  0  0  0
   -2.1849    2.6526   -1.4177 O   0  0  0  0  0  0  0  0  0  0  0  0
   -1.6424    1.7467    0.7003 C   0  0  0  0  0  0  0  0  0  0  0  0
   -1.8456    0.4053    0.3343 C   0  0  0  0  0  0  0  0  0  0  0  0
   -1.8991   -0.6046    1.3046 C   0  0  0  0  0  0  0  0  0  0  0  0
   -2.1327   -2.2846    0.8042 S   0  0  0  0  0  0  0  0  0  0  0  0
   -1.5847   -2.4649   -0.5840 O   0  0  0  0  0  0  0  0  0  0  0  0
   -1.3670   -3.1940    1.7247 O   0  0  0  0  0  0  0  0  0  0  0  0
   -3.8198   -2.7350    0.8091 N   0  0  0  0  0  0  0  0  0  0  0  0
   -4.3798   -2.6184    2.1633 C   0  0  0  0  0  0  0  0  0  0  0  0
   -5.8707   -2.9747    2.1285 C   0  0  0  0  0  0  0  0  0  0  0  0
   -6.5686   -2.1180    1.2435 O   0  0  0  0  0  0  0  0  0  0  0  0
   -6.0601   -2.2647   -0.0695 C   0  0  0  0  0  0  0  0  0  0  0  0
   -4.5753   -1.8846   -0.1228 C   0  0  0  0  0  0  0  0  0  0  0  0
   -1.7609   -0.2668    2.6599 C   0  0  0  0  0  0  0  0  0  0  0  0
   -1.8014   -1.2220    3.6224 F   0  0  0  0  0  0  0  0  0  0  0  0
   -1.5963    1.0686    3.0342 C   0  0  0  0  0  0  0  0  0  0  0  0
   -1.5414    2.0747    2.0658 C   0  0  0  0  0  0  0  0  0  0  0  0
   -1.4357    3.3648    2.4721 F   0  0  0  0  0  0  0  0  0  0  0  0
    2.9995   -0.9260   -0.3776 C   0  0  1  0  0  0  0  0  0  0  0  0
    4.4722   -0.5012   -0.1242 C   0  0  0  0  0  0  0  0  0  0  0  0
    5.0980   -1.5527    0.8106 C   0  0  0  0  0  0  0  0  0  0  0  0
    4.1114   -2.6559    0.8127 C   0  0  0  0  0  0  0  0  0  0  0  0
    4.2643   -3.9115    1.4059 C   0  0  0  0  0  0  0  0  0  0  0  0
    3.2160   -4.8393    1.3039 C   0  0  0  0  0  0  0  0  0  0  0  0
    3.3420   -6.0646    1.8707 F   0  0  0  0  0  0  0  0  0  0  0  0
    2.0384   -4.5009    0.6118 C   0  0  0  0  0  0  0  0  0  0  0  0
    1.0281   -5.3994    0.5093 F   0  0  0  0  0  0  0  0  0  0  0  0
    1.9063   -3.2328    0.0263 C   0  0  0  0  0  0  0  0  0  0  0  0
    2.9567   -2.3183    0.1509 C   0  0  0  0  0  0  0  0  0  0  0  0
    1.3472    0.4073    2.2482 H   0  0  0  0  0  0  0  0  0  0  0  0
    2.9652    0.7452    1.9567 H   0  0  0  0  0  0  0  0  0  0  0  0
    0.9502   -0.5248    0.2081 H   0  0  0  0  0  0  0  0  0  0  0  0
    1.2584    2.0233    0.3938 H   0  0  0  0  0  0  0  0  0  0  0  0
    2.8475    1.8359   -0.3855 H   0  0  0  0  0  0  0  0  0  0  0  0
    0.1737    2.1966   -4.2665 H   0  0  0  0  0  0  0  0  0  0  0  0
    1.9797    1.9731   -4.2312 H   0  0  0  0  0  0  0  0  0  0  0  0
    0.3629    4.4752   -4.6519 H   0  0  0  0  0  0  0  0  0  0  0  0
    2.0679    4.1175   -5.1556 H   0  0  0  0  0  0  0  0  0  0  0  0
    1.4905    5.8474   -3.0841 H   0  0  0  0  0  0  0  0  0  0  0  0
    2.9389    4.7698   -3.0705 H   0  0  0  0  0  0  0  0  0  0  0  0
    2.0477    4.0018   -1.0758 H   0  0  0  0  0  0  0  0  0  0  0  0
   -0.7941    4.5604   -2.2267 H   0  0  0  0  0  0  0  0  0  0  0  0
    0.1054    5.6259   -1.1059 H   0  0  0  0  0  0  0  0  0  0  0  0
   -0.0174    3.9580    0.6476 H   0  0  0  0  0  0  0  0  0  0  0  0
   -1.9352    0.1416   -0.7124 H   0  0  0  0  0  0  0  0  0  0  0  0
   -4.2684   -1.5829    2.5537 H   0  0  0  0  0  0  0  0  0  0  0  0
   -3.8584   -3.3204    2.8493 H   0  0  0  0  0  0  0  0  0  0  0  0
   -6.2920   -2.8486    3.1480 H   0  0  0  0  0  0  0  0  0  0  0  0
   -6.0104   -4.0417    1.8410 H   0  0  0  0  0  0  0  0  0  0  0  0
   -6.2096   -3.3049   -0.4386 H   0  0  0  0  0  0  0  0  0  0  0  0
   -6.6261   -1.5894   -0.7451 H   0  0  0  0  0  0  0  0  0  0  0  0
   -4.2038   -2.0376   -1.1591 H   0  0  0  0  0  0  0  0  0  0  0  0
   -4.4671   -0.8087    0.1406 H   0  0  0  0  0  0  0  0  0  0  0  0
   -1.5148    1.3263    4.0824 H   0  0  0  0  0  0  0  0  0  0  0  0
    2.8032   -0.9555   -1.4713 H   0  0  0  0  0  0  0  0  0  0  0  0
    5.0212   -0.5051   -1.0917 H   0  0  0  0  0  0  0  0  0  0  0  0
    4.5747    0.5135    0.3116 H   0  0  0  0  0  0  0  0  0  0  0  0
    5.2076   -1.1472    1.8395 H   0  0  0  0  0  0  0  0  0  0  0  0
    6.0805   -1.9009    0.4253 H   0  0  0  0  0  0  0  0  0  0  0  0
    5.1751   -4.1654    1.9327 H   0  0  0  0  0  0  0  0  0  0  0  0
    1.0076   -2.9679   -0.5125 H   0  0  0  0  0  0  0  0  0  0  0  0
  1  2  1  0
  2  3  1  0
  3  4  1  0
  4  5  2  0
  4  6  1  0
  6  7  1  0
  7  8  1  0
  8  9  1  0
  9 10  1  0
 10 11  1  0
 11 12  1  0
 12 13  1  0
 13 14  2  0
 13 15  1  0
 15 16  2  0
 16 17  1  0
 17 18  1  0
 18 19  2  0
 18 20  2  0
 18 21  1  0
 21 22  1  0
 22 23  1  0
 23 24  1  0
 24 25  1  0
 25 26  1  0
 17 27  2  0
 27 28  1  0
 27 29  1  0
 29 30  2  0
 30 31  1  0
  2 32  1  0
 32 33  1  0
 33 34  1  0
 34 35  1  0
 35 36  2  0
 36 37  1  0
 37 38  1  0
 37 39  2  0
 39 40  1  0
 39 41  1  0
 41 42  2  0
 10  6  1  0
 30 15  1  0
 42 32  1  0
 26 21  1  0
 42 35  1  0
  1 43  1  0
  1 44  1  0
  2 45  1  1
  3 46  1  0
  3 47  1  0
  7 48  1  0
  7 49  1  0
  8 50  1  0
  8 51  1  0
  9 52  1  0
  9 53  1  0
 10 54  1  1
 11 55  1  0
 11 56  1  0
 12 57  1  0
 16 58  1  0
 22 59  1  0
 22 60  1  0
 23 61  1  0
 23 62  1  0
 25 63  1  0
 25 64  1  0
 26 65  1  0
 26 66  1  0
 29 67  1  0
 32 68  1  6
 33 69  1  0
 33 70  1  0
 34 71  1  0
 34 72  1  0
 36 73  1  0
 41 74  1  0
M  END
$$$$
