
     RDKit          3D

 51 55  0  0  0  0  0  0  0  0999 V2000
   -7.2011   -2.1707    1.7551 C   0  0  0  0  0  0  0  0  0  0  0  0
   -6.3866   -1.2455    0.9150 C   0  0  0  0  0  0  0  0  0  0  0  0
   -6.8678   -0.0961    0.2836 C   0  0  0  0  0  0  0  0  0  0  0  0
   -5.7359    0.4311   -0.2880 C   0  0  0  0  0  0  0  0  0  0  0  0
   -5.6062    1.5764   -1.0171 N   0  0  0  0  0  0  0  0  0  0  0  0
   -4.3625    1.9321   -1.4726 C   0  0  0  0  0  0  0  0  0  0  0  0
   -3.2653    1.1029   -1.1779 C   0  0  0  0  0  0  0  0  0  0  0  0
   -3.4448   -0.0251   -0.4453 C   0  0  0  0  0  0  0  0  0  0  0  0
   -4.6816   -0.3451   -0.0024 N   0  0  0  0  0  0  0  0  0  0  0  0
   -5.0473   -1.3738    0.7403 N   0  0  0  0  0  0  0  0  0  0  0  0
   -2.1630   -0.7017   -0.1888 C   0  0  0  0  0  0  0  0  0  0  0  0
   -1.1857   -0.0014   -1.0646 N   0  0  0  0  0  0  0  0  0  0  0  0
    0.1457    0.1875   -0.4305 C   0  0  1  0  0  0  0  0  0  0  0  0
    0.7594   -1.1820   -0.0403 C   0  0  0  0  0  0  0  0  0  0  0  0
    2.1510   -1.0222    0.5827 C   0  0  0  0  0  0  0  0  0  0  0  0
    3.1045   -0.2912   -0.3790 C   0  0  2  0  0  0  0  0  0  0  0  0
    4.5026   -0.1697    0.2140 C   0  0  0  0  0  0  0  0  0  0  0  0
    5.5799   -0.8058   -0.4332 C   0  0  0  0  0  0  0  0  0  0  0  0
    6.8766   -0.7133    0.0804 C   0  0  0  0  0  0  0  0  0  0  0  0
    7.9012   -1.3322   -0.5569 F   0  0  0  0  0  0  0  0  0  0  0  0
    7.1169    0.0150    1.2470 C   0  0  0  0  0  0  0  0  0  0  0  0
    8.3746    0.1054    1.7460 F   0  0  0  0  0  0  0  0  0  0  0  0
    6.0608    0.6516    1.9012 C   0  0  0  0  0  0  0  0  0  0  0  0
    4.7599    0.5647    1.3947 C   0  0  0  0  0  0  0  0  0  0  0  0
    3.7642    1.1986    2.0624 F   0  0  0  0  0  0  0  0  0  0  0  0
    2.5214    1.0792   -0.7949 C   0  0  1  0  0  0  0  0  0  0  0  0
    3.4198    1.7423   -1.7449 N   0  0  0  0  0  0  0  0  0  0  0  0
    1.1147    0.9047   -1.4069 C   0  0  0  0  0  0  0  0  0  0  0  0
   -1.8308    1.2757   -1.4783 C   0  0  0  0  0  0  0  0  0  0  0  0
   -6.7265   -3.1740    1.7840 H   0  0  0  0  0  0  0  0  0  0  0  0
   -8.2229   -2.2695    1.3317 H   0  0  0  0  0  0  0  0  0  0  0  0
   -7.2694   -1.7693    2.7874 H   0  0  0  0  0  0  0  0  0  0  0  0
   -7.8774    0.2926    0.2640 H   0  0  0  0  0  0  0  0  0  0  0  0
   -4.2297    2.8424   -2.0416 H   0  0  0  0  0  0  0  0  0  0  0  0
   -1.9198   -0.5902    0.8914 H   0  0  0  0  0  0  0  0  0  0  0  0
   -2.2280   -1.7738   -0.4701 H   0  0  0  0  0  0  0  0  0  0  0  0
    0.0380    0.8082    0.4893 H   0  0  0  0  0  0  0  0  0  0  0  0
    0.1204   -1.7019    0.7034 H   0  0  0  0  0  0  0  0  0  0  0  0
    0.8256   -1.8341   -0.9393 H   0  0  0  0  0  0  0  0  0  0  0  0
    2.0507   -0.4695    1.5404 H   0  0  0  0  0  0  0  0  0  0  0  0
    2.5598   -2.0305    0.8126 H   0  0  0  0  0  0  0  0  0  0  0  0
    3.1633   -0.9144   -1.3013 H   0  0  0  0  0  0  0  0  0  0  0  0
    5.4184   -1.3754   -1.3400 H   0  0  0  0  0  0  0  0  0  0  0  0
    6.2504    1.2156    2.8056 H   0  0  0  0  0  0  0  0  0  0  0  0
    2.4213    1.7293    0.1010 H   0  0  0  0  0  0  0  0  0  0  0  0
    3.4362    1.2046   -2.6424 H   0  0  0  0  0  0  0  0  0  0  0  0
    3.0425    2.6947   -1.9567 H   0  0  0  0  0  0  0  0  0  0  0  0
    0.7286    1.9137   -1.6617 H   0  0  0  0  0  0  0  0  0  0  0  0
    1.1817    0.3221   -2.3527 H   0  0  0  0  0  0  0  0  0  0  0  0
   -1.6818    1.4420   -2.5661 H   0  0  0  0  0  0  0  0  0  0  0  0
   -1.4560    2.1460   -0.8945 H   0  0  0  0  0  0  0  0  0  0  0  0
  1  2  1  0
  2  3  1  0
  3  4  2  0
  4  5  1  0
  5  6  2  0
  6  7  1  0
  7  8  2  0
  8  9  1  0
  9 10  1  0
  8 11  1  0
 11 12  1  0
 12 13  1  0
 13 14  1  0
 14 15  1  0
 15 16  1  0
 16 17  1  0
 17 18  2  0
 18 19  1  0
 19 20  1  0
 19 21  2  0
 21 22  1  0
 21 23  1  0
 23 24  2  0
 24 25  1  0
 16 26  1  0
 26 27  1  0
 26 28  1  0
 12 29  1  0
 10  2  2  0
 28 13  1  0
  9  4  1  0
 24 17  1  0
 29  7  1  0
  1 30  1  0
  1 31  1  0
  1 32  1  0
  3 33  1  0
  6 34  1  0
 11 35  1  0
 11 36  1  0
 13 37  1  1
 14 38  1  0
 14 39  1  0
 15 40  1  0
 15 41  1  0
 16 42  1  6
 18 43  1  0
 23 44  1  0
 26 45  1  1
 27 46  1  0
 27 47  1  0
 28 48  1  0
 28 49  1  0
 29 50  1  0
 29 51  1  0
M  END
$$$$
