
     RDKit          3D

 39 41  0  0  0  0  0  0  0  0999 V2000
    1.9085   -0.9694    2.7217 N   0  0  0  0  0  0  0  0  0  0  0  0
    2.5543   -0.6930    1.8020 C   0  0  0  0  0  0  0  0  0  0  0  0
    3.3784   -0.3424    0.6321 C   0  0  2  0  0  0  0  0  0  0  0  0
    4.7973    0.0391    1.0655 C   0  0  0  0  0  0  0  0  0  0  0  0
    5.1439    1.3085    0.2941 C   0  0  0  0  0  0  0  0  0  0  0  0
    3.8154    1.9085   -0.1419 C   0  0  0  0  0  0  0  0  0  0  0  0
    2.8425    0.8325   -0.0456 N   0  0  0  0  0  0  0  0  0  0  0  0
    1.5555    0.9149   -0.6930 C   0  0  0  0  0  0  0  0  0  0  0  0
    1.1571    2.0271   -1.1348 O   0  0  0  0  0  0  0  0  0  0  0  0
    0.6930   -0.2990   -0.9295 C   0  0  0  0  0  0  0  0  0  0  0  0
   -0.7182   -0.0062   -0.6044 N   0  0  0  0  0  0  0  0  0  0  0  0
   -0.9255    0.0175    0.8574 C   0  0  0  0  0  0  0  0  0  0  0  0
   -2.3197    0.5624    1.1716 C   0  0  0  0  0  0  0  0  0  0  0  0
   -3.3813   -0.1128    0.3436 C   0  0  0  0  0  0  0  0  0  0  0  0
   -4.7309    0.0282    0.7028 C   0  0  0  0  0  0  0  0  0  0  0  0
   -5.7334   -0.5500   -0.0798 C   0  0  0  0  0  0  0  0  0  0  0  0
   -5.3976   -1.2666   -1.2301 C   0  0  0  0  0  0  0  0  0  0  0  0
   -4.0586   -1.4027   -1.6048 C   0  0  0  0  0  0  0  0  0  0  0  0
   -3.0435   -0.8124   -0.8351 C   0  0  0  0  0  0  0  0  0  0  0  0
   -1.5985   -1.0217   -1.2190 C   0  0  0  0  0  0  0  0  0  0  0  0
    3.4170   -1.1992   -0.0750 H   0  0  0  0  0  0  0  0  0  0  0  0
    4.8524    0.2590    2.1562 H   0  0  0  0  0  0  0  0  0  0  0  0
    5.5180   -0.7753    0.8332 H   0  0  0  0  0  0  0  0  0  0  0  0
    5.7450    1.0432   -0.6035 H   0  0  0  0  0  0  0  0  0  0  0  0
    5.7223    2.0210    0.9216 H   0  0  0  0  0  0  0  0  0  0  0  0
    3.8876    2.2800   -1.1876 H   0  0  0  0  0  0  0  0  0  0  0  0
    3.5178    2.7392    0.5341 H   0  0  0  0  0  0  0  0  0  0  0  0
    0.7946   -0.5491   -2.0088 H   0  0  0  0  0  0  0  0  0  0  0  0
    1.0457   -1.1860   -0.3632 H   0  0  0  0  0  0  0  0  0  0  0  0
   -0.8115   -1.0023    1.2925 H   0  0  0  0  0  0  0  0  0  0  0  0
   -0.1830    0.6839    1.3487 H   0  0  0  0  0  0  0  0  0  0  0  0
   -2.3422    1.6524    0.9549 H   0  0  0  0  0  0  0  0  0  0  0  0
   -2.5301    0.4165    2.2535 H   0  0  0  0  0  0  0  0  0  0  0  0
   -5.0055    0.5868    1.5892 H   0  0  0  0  0  0  0  0  0  0  0  0
   -6.7718   -0.4421    0.2057 H   0  0  0  0  0  0  0  0  0  0  0  0
   -6.1758   -1.7190   -1.8312 H   0  0  0  0  0  0  0  0  0  0  0  0
   -3.8118   -1.9695   -2.4941 H   0  0  0  0  0  0  0  0  0  0  0  0
   -1.2940   -2.0471   -0.9080 H   0  0  0  0  0  0  0  0  0  0  0  0
   -1.5136   -0.9550   -2.3265 H   0  0  0  0  0  0  0  0  0  0  0  0
  1  2  3  0
  2  3  1  0
  3  4  1  0
  4  5  1  0
  5  6  1  0
  6  7  1  0
  7  8  1  0
  8  9  2  0
  8 10  1  0
 10 11  1  0
 11 12  1  0
 12 13  1  0
 13 14  1  0
 14 15  2  0
 15 16  1  0
 16 17  2  0
 17 18  1  0
 18 19  2  0
 19 20  1  0
  7  3  1  0
 20 11  1  0
 19 14  1  0
  3 21  1  6
  4 22  1  0
  4 23  1  0
  5 24  1  0
  5 25  1  0
  6 26  1  0
  6 27  1  0
 10 28  1  0
 10 29  1  0
 12 30  1  0
 12 31  1  0
 13 32  1  0
 13 33  1  0
 15 34  1  0
 16 35  1  0
 17 36  1  0
 18 37  1  0
 20 38  1  0
 20 39  1  0
M  END
$$$$
