
     RDKit          3D

 56 58  0  0  0  0  0  0  0  0999 V2000
    0.6878    0.0000    0.0000 Cl  0  0  0  0  0  0  0  0  0  0  0  0
   -5.5666   -2.6698   -0.2335 N   0  0  0  0  0  0  0  0  0  0  0  0
   -5.7360   -1.5321   -0.1046 C   0  0  0  0  0  0  0  0  0  0  0  0
   -5.9602   -0.0861    0.0542 C   0  0  2  0  0  0  0  0  0  0  0  0
   -6.8215    0.4358   -1.0950 C   0  0  0  0  0  0  0  0  0  0  0  0
   -5.8333    0.9755   -2.1194 C   0  0  0  0  0  0  0  0  0  0  0  0
   -4.6044    1.3686   -1.3132 C   0  0  0  0  0  0  0  0  0  0  0  0
   -4.6985    0.6407   -0.0529 N   0  0  0  0  0  0  0  0  0  0  0  0
   -3.8420    0.9810    1.0604 C   0  0  0  0  0  0  0  0  0  0  0  0
   -3.2865    2.1137    1.0759 O   0  0  0  0  0  0  0  0  0  0  0  0
   -3.4942    0.0139    2.1744 C   0  0  1  0  0  0  0  0  0  0  0  0
   -4.6924   -0.3969    2.9118 N   0  0  0  0  0  0  0  0  0  0  0  0
   -2.6833   -1.1998    1.6701 C   0  0  0  0  0  0  0  0  0  0  0  0
   -1.3898   -0.7774    1.0197 C   0  0  0  0  0  0  0  0  0  0  0  0
   -0.2774   -0.4466    1.8067 C   0  0  0  0  0  0  0  0  0  0  0  0
    0.9106   -0.0178    1.2077 C   0  0  0  0  0  0  0  0  0  0  0  0
    1.0045    0.0943   -0.1918 C   0  0  0  0  0  0  0  0  0  0  0  0
    2.2550    0.5495   -0.8433 C   0  0  0  0  0  0  0  0  0  0  0  0
    3.4470    0.9005   -0.2366 C   0  0  0  0  0  0  0  0  0  0  0  0
    4.2861    1.2389   -1.2297 N   0  0  0  0  0  0  0  0  0  0  0  0
    5.6854    1.6271   -1.0934 C   0  0  0  0  0  0  0  0  0  0  0  0
    6.5437    0.4031   -0.8951 C   0  0  0  0  0  0  0  0  0  0  0  0
    6.8444   -0.0179    0.4124 C   0  0  0  0  0  0  0  0  0  0  0  0
    7.6065   -1.1685    0.6294 C   0  0  0  0  0  0  0  0  0  0  0  0
    8.0678   -1.9167   -0.4545 C   0  0  0  0  0  0  0  0  0  0  0  0
    7.7638   -1.5193   -1.7583 C   0  0  0  0  0  0  0  0  0  0  0  0
    7.0000   -0.3680   -1.9879 C   0  0  0  0  0  0  0  0  0  0  0  0
    6.6337    0.0699   -3.6533 Cl  0  0  0  0  0  0  0  0  0  0  0  0
    3.6559    1.0943   -2.3835 N   0  0  0  0  0  0  0  0  0  0  0  0
    2.4142    0.6798   -2.1784 N   0  0  0  0  0  0  0  0  0  0  0  0
   -0.1163   -0.2311   -0.9757 C   0  0  0  0  0  0  0  0  0  0  0  0
   -1.3026   -0.6609   -0.3754 C   0  0  0  0  0  0  0  0  0  0  0  0
   -0.6878    0.0000    0.0000 H   0  0  0  0  0  0  0  0  0  0  0  0
   -6.4639    0.1236    1.0216 H   0  0  0  0  0  0  0  0  0  0  0  0
   -7.4878   -0.3380   -1.5381 H   0  0  0  0  0  0  0  0  0  0  0  0
   -7.4533    1.2742   -0.7262 H   0  0  0  0  0  0  0  0  0  0  0  0
   -5.5670    0.1695   -2.8383 H   0  0  0  0  0  0  0  0  0  0  0  0
   -6.2543    1.8417   -2.6746 H   0  0  0  0  0  0  0  0  0  0  0  0
   -4.6188    2.4644   -1.1236 H   0  0  0  0  0  0  0  0  0  0  0  0
   -3.6715    1.0920   -1.8498 H   0  0  0  0  0  0  0  0  0  0  0  0
   -2.8386    0.5631    2.8908 H   0  0  0  0  0  0  0  0  0  0  0  0
   -5.0971   -1.2632    2.4916 H   0  0  0  0  0  0  0  0  0  0  0  0
   -4.4076   -0.6584    3.8840 H   0  0  0  0  0  0  0  0  0  0  0  0
   -2.4545   -1.8655    2.5310 H   0  0  0  0  0  0  0  0  0  0  0  0
   -3.2814   -1.8017    0.9583 H   0  0  0  0  0  0  0  0  0  0  0  0
   -0.3319   -0.5173    2.8861 H   0  0  0  0  0  0  0  0  0  0  0  0
    1.7487    0.2277    1.8450 H   0  0  0  0  0  0  0  0  0  0  0  0
    3.6950    0.9023    0.8163 H   0  0  0  0  0  0  0  0  0  0  0  0
    5.7936    2.3211   -0.2311 H   0  0  0  0  0  0  0  0  0  0  0  0
    6.0110    2.1938   -1.9916 H   0  0  0  0  0  0  0  0  0  0  0  0
    6.4861    0.5444    1.2660 H   0  0  0  0  0  0  0  0  0  0  0  0
    7.8364   -1.4822    1.6394 H   0  0  0  0  0  0  0  0  0  0  0  0
    8.6570   -2.8085   -0.2843 H   0  0  0  0  0  0  0  0  0  0  0  0
    8.1198   -2.1110   -2.5922 H   0  0  0  0  0  0  0  0  0  0  0  0
   -0.0781   -0.1511   -2.0549 H   0  0  0  0  0  0  0  0  0  0  0  0
   -2.1553   -0.8990   -0.9993 H   0  0  0  0  0  0  0  0  0  0  0  0
  2  3  3  0
  3  4  1  0
  4  5  1  0
  5  6  1  0
  6  7  1  0
  7  8  1  0
  8  9  1  0
  9 10  2  0
  9 11  1  0
 11 12  1  0
 11 13  1  0
 13 14  1  0
 14 15  2  0
 15 16  1  0
 16 17  2  0
 17 18  1  0
 18 19  2  0
 19 20  1  0
 20 21  1  0
 21 22  1  0
 22 23  2  0
 23 24  1  0
 24 25  2  0
 25 26  1  0
 26 27  2  0
 27 28  1  0
 20 29  1  0
 29 30  2  0
 17 31  1  0
 31 32  2  0
  8  4  1  0
 32 14  1  0
 30 18  1  0
 27 22  1  0
  1 33  1  0
  4 34  1  1
  5 35  1  0
  5 36  1  0
  6 37  1  0
  6 38  1  0
  7 39  1  0
  7 40  1  0
 11 41  1  1
 12 42  1  0
 12 43  1  0
 13 44  1  0
 13 45  1  0
 15 46  1  0
 16 47  1  0
 19 48  1  0
 21 49  1  0
 21 50  1  0
 23 51  1  0
 24 52  1  0
 25 53  1  0
 26 54  1  0
 31 55  1  0
 32 56  1  0
M  END
$$$$
