
     RDKit          3D

 49 51  0  0  0  0  0  0  0  0999 V2000
   -1.6106    2.4064   -0.1569 N   0  0  0  0  0  0  0  0  0  0  0  0
   -0.9946    1.1001   -0.4070 C   0  0  1  0  0  0  0  0  0  0  0  0
    0.4788    1.0922    0.0635 C   0  0  0  0  0  0  0  0  0  0  0  0
    1.0061   -0.2724    0.0728 N   0  0  0  0  0  0  0  0  0  0  0  0
    0.2775   -1.4135    0.1190 C   0  0  0  0  0  0  0  0  0  0  0  0
    1.0326   -2.5383    0.2220 N   0  0  0  0  0  0  0  0  0  0  0  0
    2.2867   -2.0465    0.2745 C   0  0  0  0  0  0  0  0  0  0  0  0
    3.4721   -2.7614    0.4082 C   0  0  0  0  0  0  0  0  0  0  0  0
    4.6746   -2.0328    0.4644 C   0  0  0  0  0  0  0  0  0  0  0  0
    4.6747   -0.6184    0.3907 C   0  0  0  0  0  0  0  0  0  0  0  0
    5.9101    0.0452    0.4572 O   0  0  0  0  0  0  0  0  0  0  0  0
    6.0882    1.4587    0.3984 C   0  0  0  0  0  0  0  0  0  0  0  0
    7.4362    1.7450    0.4930 F   0  0  0  0  0  0  0  0  0  0  0  0
    5.6112    1.9497   -0.8037 F   0  0  0  0  0  0  0  0  0  0  0  0
    5.4282    2.0665    1.4514 F   0  0  0  0  0  0  0  0  0  0  0  0
    3.4448    0.0744    0.2546 C   0  0  0  0  0  0  0  0  0  0  0  0
    2.2760   -0.6840    0.1948 C   0  0  0  0  0  0  0  0  0  0  0  0
   -1.2138   -1.4220   -0.0211 C   0  0  0  0  0  0  0  0  0  0  0  0
   -1.7963   -0.0274    0.3016 C   0  0  2  0  0  0  0  0  0  0  0  0
   -3.2857    0.0272   -0.0117 C   0  0  0  0  0  0  0  0  0  0  0  0
   -4.2049    0.1894    1.0430 C   0  0  0  0  0  0  0  0  0  0  0  0
   -5.5785    0.2443    0.7901 C   0  0  0  0  0  0  0  0  0  0  0  0
   -6.4487    0.4024    1.8181 F   0  0  0  0  0  0  0  0  0  0  0  0
   -6.0542    0.1364   -0.5182 C   0  0  0  0  0  0  0  0  0  0  0  0
   -7.3867    0.1894   -0.7645 F   0  0  0  0  0  0  0  0  0  0  0  0
   -5.1567   -0.0276   -1.5749 C   0  0  0  0  0  0  0  0  0  0  0  0
   -3.7805   -0.0835   -1.3313 C   0  0  0  0  0  0  0  0  0  0  0  0
   -2.9436   -0.2476   -2.3858 F   0  0  0  0  0  0  0  0  0  0  0  0
    0.7311   -0.0781   -1.5549 O   0  0  0  0  0  0  0  0  0  0  0  0
    0.4659   -0.0274   -0.3240 C   0  0  0  0  0  0  0  0  0  0  0  0
    1.4903   -0.1416    0.6111 O   0  0  0  0  0  0  0  0  0  0  0  0
   -0.9521    0.0953    0.1310 C   0  0  0  0  0  0  0  0  0  0  0  0
   -1.5422   -1.1544    0.1348 F   0  0  0  0  0  0  0  0  0  0  0  0
   -1.6523    0.9282   -0.7230 F   0  0  0  0  0  0  0  0  0  0  0  0
   -0.9947    0.6225    1.4088 F   0  0  0  0  0  0  0  0  0  0  0  0
   -1.0657    3.1379   -0.6690 H   0  0  0  0  0  0  0  0  0  0  0  0
   -1.5524    2.6283    0.8639 H   0  0  0  0  0  0  0  0  0  0  0  0
   -0.9959    0.9159   -1.5030 H   0  0  0  0  0  0  0  0  0  0  0  0
    1.0872    1.7249   -0.6183 H   0  0  0  0  0  0  0  0  0  0  0  0
    0.5547    1.5083    1.0915 H   0  0  0  0  0  0  0  0  0  0  0  0
    3.4703   -3.8418    0.4717 H   0  0  0  0  0  0  0  0  0  0  0  0
    5.6118   -2.5645    0.5692 H   0  0  0  0  0  0  0  0  0  0  0  0
    3.3951    1.1521    0.1967 H   0  0  0  0  0  0  0  0  0  0  0  0
   -1.6455   -2.1763    0.6718 H   0  0  0  0  0  0  0  0  0  0  0  0
   -1.4562   -1.7243   -1.0606 H   0  0  0  0  0  0  0  0  0  0  0  0
   -1.6585    0.1251    1.3972 H   0  0  0  0  0  0  0  0  0  0  0  0
   -3.8594    0.2751    2.0657 H   0  0  0  0  0  0  0  0  0  0  0  0
   -5.5286   -0.1126   -2.5881 H   0  0  0  0  0  0  0  0  0  0  0  0
    2.4540   -0.2446    0.3162 H   0  0  0  0  0  0  0  0  0  0  0  0
  1  2  1  0
  2  3  1  0
  3  4  1  0
  4  5  1  0
  5  6  2  0
  6  7  1  0
  7  8  2  0
  8  9  1  0
  9 10  2  0
 10 11  1  0
 11 12  1  0
 12 13  1  0
 12 14  1  0
 12 15  1  0
 10 16  1  0
 16 17  2  0
  5 18  1  0
 18 19  1  0
 19 20  1  0
 20 21  2  0
 21 22  1  0
 22 23  1  0
 22 24  2  0
 24 25  1  0
 24 26  1  0
 26 27  2  0
 27 28  1  0
 29 30  2  0
 30 31  1  0
 30 32  1  0
 32 33  1  0
 32 34  1  0
 32 35  1  0
 19  2  1  0
 27 20  1  0
 17  4  1  0
 17  7  1  0
  1 36  1  0
  1 37  1  0
  2 38  1  6
  3 39  1  0
  3 40  1  0
  8 41  1  0
  9 42  1  0
 16 43  1  0
 18 44  1  0
 18 45  1  0
 19 46  1  1
 21 47  1  0
 26 48  1  0
 31 49  1  0
M  END
$$$$
