
     RDKit          3D

 35 35  0  0  0  0  0  0  0  0999 V2000
   -3.9917    1.0648   -0.2122 C   0  0  0  0  0  0  0  0  0  0  0  0
   -2.8165    0.5262   -1.0337 C   0  0  0  0  0  0  0  0  0  0  0  0
   -1.6767   -0.1128   -0.1961 C   0  0  2  0  0  0  0  0  0  0  0  0
   -2.1743   -1.3742    0.5350 C   0  0  0  0  0  0  0  0  0  0  0  0
   -0.9956    0.8899    0.7893 C   0  0  2  0  0  0  0  0  0  0  0  0
   -0.5286    2.1155    0.1298 N   0  0  0  0  0  0  0  0  0  0  0  0
    0.1380    0.2510    1.5709 C   0  0  0  0  0  0  0  0  0  0  0  0
   -0.0725   -0.0276    2.7835 O   0  0  0  0  0  0  0  0  0  0  0  0
    1.4124   -0.1026    0.9891 N   0  0  0  0  0  0  0  0  0  0  0  0
    2.3874   -0.9021    1.7147 C   0  0  0  0  0  0  0  0  0  0  0  0
    3.6745   -0.8286    0.9056 C   0  0  0  0  0  0  0  0  0  0  0  0
    3.2628   -0.3629   -0.4896 C   0  0  0  0  0  0  0  0  0  0  0  0
    3.1069   -1.5214   -1.3663 N   0  0  0  0  0  0  0  0  0  0  0  0
    2.8683   -1.3828   -2.5666 N   0  0  0  0  0  0  0  0  0  0  0  0
    2.6295   -1.2444   -3.7651 N   0  0  0  0  0  0  0  0  0  0  0  0
    1.9265    0.3578   -0.2925 C   0  0  0  0  0  0  0  0  0  0  0  0
   -3.6698    1.8939    0.4499 H   0  0  0  0  0  0  0  0  0  0  0  0
   -4.7655    1.4626   -0.9020 H   0  0  0  0  0  0  0  0  0  0  0  0
   -4.4560    0.2605    0.3943 H   0  0  0  0  0  0  0  0  0  0  0  0
   -2.4110    1.3515   -1.6562 H   0  0  0  0  0  0  0  0  0  0  0  0
   -3.2084   -0.2323   -1.7462 H   0  0  0  0  0  0  0  0  0  0  0  0
   -0.9179   -0.4590   -0.9273 H   0  0  0  0  0  0  0  0  0  0  0  0
   -1.3130   -1.9651    0.9124 H   0  0  0  0  0  0  0  0  0  0  0  0
   -2.7476   -2.0267   -0.1575 H   0  0  0  0  0  0  0  0  0  0  0  0
   -2.8200   -1.1069    1.3977 H   0  0  0  0  0  0  0  0  0  0  0  0
   -1.7612    1.1860    1.5425 H   0  0  0  0  0  0  0  0  0  0  0  0
   -1.3211    2.7960    0.0783 H   0  0  0  0  0  0  0  0  0  0  0  0
   -0.2433    1.9177   -0.8554 H   0  0  0  0  0  0  0  0  0  0  0  0
    2.5513   -0.4918    2.7351 H   0  0  0  0  0  0  0  0  0  0  0  0
    2.0283   -1.9519    1.7831 H   0  0  0  0  0  0  0  0  0  0  0  0
    4.2006   -1.8085    0.8888 H   0  0  0  0  0  0  0  0  0  0  0  0
    4.3507   -0.0703    1.3590 H   0  0  0  0  0  0  0  0  0  0  0  0
    4.0312    0.3226   -0.9126 H   0  0  0  0  0  0  0  0  0  0  0  0
    2.0975    1.4549   -0.2483 H   0  0  0  0  0  0  0  0  0  0  0  0
    1.2247    0.1209   -1.1154 H   0  0  0  0  0  0  0  0  0  0  0  0
  1  2  1  0
  2  3  1  0
  3  4  1  0
  3  5  1  0
  5  6  1  0
  5  7  1  0
  7  8  2  0
  7  9  1  0
  9 10  1  0
 10 11  1  0
 11 12  1  0
 12 13  1  0
 13 14  2  0
 14 15  2  0
 12 16  1  0
 16  9  1  0
  1 17  1  0
  1 18  1  0
  1 19  1  0
  2 20  1  0
  2 21  1  0
  3 22  1  6
  4 23  1  0
  4 24  1  0
  4 25  1  0
  5 26  1  1
  6 27  1  0
  6 28  1  0
 10 29  1  0
 10 30  1  0
 11 31  1  0
 11 32  1  0
 12 33  1  0
 16 34  1  0
 16 35  1  0
M  CHG  2  14   1  15  -1
M  END
$$$$
