
     RDKit          3D

 51 53  0  0  0  0  0  0  0  0999 V2000
   -5.2324    1.9481   -0.6118 C   0  0  0  0  0  0  0  0  0  0  0  0
   -5.2855    1.0792    0.6447 C   0  0  0  0  0  0  0  0  0  0  0  0
   -4.3410   -0.1302    0.5687 C   0  0  0  0  0  0  0  0  0  0  0  0
   -2.8578    0.2733    0.6683 C   0  0  0  0  0  0  0  0  0  0  0  0
   -1.9094   -0.9499    0.7336 C   0  0  0  0  0  0  0  0  0  0  0  0
   -0.4644   -0.5211    1.1278 C   0  0  0  0  0  0  0  0  0  0  0  0
    0.5018   -0.7886    0.0565 N   0  0  0  0  0  0  0  0  0  0  0  0
    1.3844    0.2564   -0.3790 C   0  0  0  0  0  0  0  0  0  0  0  0
    0.8877    1.2397   -1.2434 C   0  0  0  0  0  0  0  0  0  0  0  0
    1.7136    2.2669   -1.6939 C   0  0  0  0  0  0  0  0  0  0  0  0
    3.0442    2.3259   -1.2831 C   0  0  0  0  0  0  0  0  0  0  0  0
    3.5680    1.3532   -0.4180 C   0  0  0  0  0  0  0  0  0  0  0  0
    2.7265    0.3172    0.0643 C   0  0  0  0  0  0  0  0  0  0  0  0
    3.2737   -0.7650    0.9736 C   0  0  0  0  0  0  0  0  0  0  0  0
    4.5576   -0.3439    1.6919 C   0  0  0  0  0  0  0  0  0  0  0  0
    5.5543    0.2370    0.6921 C   0  0  0  0  0  0  0  0  0  0  0  0
    4.9918    1.5139    0.0641 C   0  0  0  0  0  0  0  0  0  0  0  0
    0.5765   -2.1140   -0.5719 C   0  0  0  0  0  0  0  0  0  0  0  0
   -0.7705   -2.8482   -0.4867 C   0  0  0  0  0  0  0  0  0  0  0  0
   -1.9442   -1.8518   -0.5411 C   0  0  0  0  0  0  0  0  0  0  0  0
   -1.8756   -1.0592   -1.7771 N   0  0  0  0  0  0  0  0  0  0  0  0
   -4.2486    2.4532   -0.7003 H   0  0  0  0  0  0  0  0  0  0  0  0
   -5.4157    1.3330   -1.5184 H   0  0  0  0  0  0  0  0  0  0  0  0
   -6.0176    2.7309   -0.5519 H   0  0  0  0  0  0  0  0  0  0  0  0
   -5.0468    1.6981    1.5368 H   0  0  0  0  0  0  0  0  0  0  0  0
   -6.3254    0.7051    0.7648 H   0  0  0  0  0  0  0  0  0  0  0  0
   -4.5841   -0.8080    1.4159 H   0  0  0  0  0  0  0  0  0  0  0  0
   -4.5379   -0.6890   -0.3698 H   0  0  0  0  0  0  0  0  0  0  0  0
   -2.5678    0.9290   -0.1788 H   0  0  0  0  0  0  0  0  0  0  0  0
   -2.7327    0.8680    1.6002 H   0  0  0  0  0  0  0  0  0  0  0  0
   -2.2787   -1.5826    1.5732 H   0  0  0  0  0  0  0  0  0  0  0  0
   -0.1474   -1.0958    2.0255 H   0  0  0  0  0  0  0  0  0  0  0  0
   -0.4239    0.5517    1.4213 H   0  0  0  0  0  0  0  0  0  0  0  0
   -0.1438    1.2043   -1.5702 H   0  0  0  0  0  0  0  0  0  0  0  0
    1.3200    3.0230   -2.3610 H   0  0  0  0  0  0  0  0  0  0  0  0
    3.6682    3.1390   -1.6336 H   0  0  0  0  0  0  0  0  0  0  0  0
    3.4871   -1.6663    0.3599 H   0  0  0  0  0  0  0  0  0  0  0  0
    2.5202   -1.0386    1.7430 H   0  0  0  0  0  0  0  0  0  0  0  0
    4.3224    0.4109    2.4747 H   0  0  0  0  0  0  0  0  0  0  0  0
    5.0068   -1.2296    2.1909 H   0  0  0  0  0  0  0  0  0  0  0  0
    6.5076    0.4724    1.2127 H   0  0  0  0  0  0  0  0  0  0  0  0
    5.7714   -0.5104   -0.1029 H   0  0  0  0  0  0  0  0  0  0  0  0
    5.0177    2.3311    0.8174 H   0  0  0  0  0  0  0  0  0  0  0  0
    5.6470    1.8103   -0.7840 H   0  0  0  0  0  0  0  0  0  0  0  0
    1.3638   -2.7226   -0.0805 H   0  0  0  0  0  0  0  0  0  0  0  0
    0.8488   -1.9979   -1.6443 H   0  0  0  0  0  0  0  0  0  0  0  0
   -0.8196   -3.4212    0.4657 H   0  0  0  0  0  0  0  0  0  0  0  0
   -0.8501   -3.5826   -1.3177 H   0  0  0  0  0  0  0  0  0  0  0  0
   -2.8889   -2.4417   -0.5405 H   0  0  0  0  0  0  0  0  0  0  0  0
   -2.8010   -0.6035   -1.9406 H   0  0  0  0  0  0  0  0  0  0  0  0
   -1.7502   -1.7091   -2.5871 H   0  0  0  0  0  0  0  0  0  0  0  0
  1  2  1  0
  2  3  1  0
  3  4  1  0
  4  5  1  0
  5  6  1  0
  6  7  1  0
  7  8  1  0
  8  9  2  0
  9 10  1  0
 10 11  2  0
 11 12  1  0
 12 13  2  0
 13 14  1  0
 14 15  1  0
 15 16  1  0
 16 17  1  0
  7 18  1  0
 18 19  1  0
 19 20  1  0
 20 21  1  0
 20  5  1  0
 13  8  1  0
 17 12  1  0
  1 22  1  0
  1 23  1  0
  1 24  1  0
  2 25  1  0
  2 26  1  0
  3 27  1  0
  3 28  1  0
  4 29  1  0
  4 30  1  0
  5 31  1  0
  6 32  1  0
  6 33  1  0
  9 34  1  0
 10 35  1  0
 11 36  1  0
 14 37  1  0
 14 38  1  0
 15 39  1  0
 15 40  1  0
 16 41  1  0
 16 42  1  0
 17 43  1  0
 17 44  1  0
 18 45  1  0
 18 46  1  0
 19 47  1  0
 19 48  1  0
 20 49  1  0
 21 50  1  0
 21 51  1  0
M  END
$$$$
