
     RDKit          3D

 43 44  0  0  0  0  0  0  0  0999 V2000
   -5.7561    2.0030    1.5563 N   0  0  0  0  0  0  0  0  0  0  0  0
   -4.7193    1.1105    1.1493 C   0  0  0  0  0  0  0  0  0  0  0  0
   -3.8469    0.7478    1.9842 O   0  0  0  0  0  0  0  0  0  0  0  0
   -4.6941    0.5642   -0.2555 C   0  0  2  0  0  0  0  0  0  0  0  0
   -5.2621   -0.8560   -0.3077 C   0  0  0  0  0  0  0  0  0  0  0  0
   -4.3378   -1.6384   -1.2359 C   0  0  0  0  0  0  0  0  0  0  0  0
   -3.0248   -0.8673   -1.2704 C   0  0  0  0  0  0  0  0  0  0  0  0
   -3.3306    0.4596   -0.7601 N   0  0  0  0  0  0  0  0  0  0  0  0
   -2.4394    1.5868   -0.8721 C   0  0  0  0  0  0  0  0  0  0  0  0
   -2.8817    2.7535   -0.6897 O   0  0  0  0  0  0  0  0  0  0  0  0
   -0.9698    1.4029   -1.1292 C   0  0  0  0  0  0  0  0  0  0  0  0
   -0.2388    1.0598    0.1716 C   0  0  0  0  0  0  0  0  0  0  0  0
    1.1913    0.8659   -0.0677 N   0  0  0  0  0  0  0  0  0  0  0  0
    2.0860    0.5324    1.0052 C   0  0  0  0  0  0  0  0  0  0  0  0
    1.6667    0.5614    2.1951 O   0  0  0  0  0  0  0  0  0  0  0  0
    3.5003    0.1720    0.7420 C   0  0  0  0  0  0  0  0  0  0  0  0
    4.4677    0.3418    1.7475 C   0  0  0  0  0  0  0  0  0  0  0  0
    5.8032    0.0015    1.5147 C   0  0  0  0  0  0  0  0  0  0  0  0
    6.2024   -0.5065    0.2677 C   0  0  0  0  0  0  0  0  0  0  0  0
    7.6335   -0.9207    0.0339 C   0  0  0  0  0  0  0  0  0  0  0  0
    7.7935   -2.2398    0.4151 F   0  0  0  0  0  0  0  0  0  0  0  0
    7.9665   -0.7941   -1.3037 F   0  0  0  0  0  0  0  0  0  0  0  0
    8.4979   -0.1300    0.7712 F   0  0  0  0  0  0  0  0  0  0  0  0
    5.2301   -0.7148   -0.7242 C   0  0  0  0  0  0  0  0  0  0  0  0
    3.8943   -0.3737   -0.4926 C   0  0  0  0  0  0  0  0  0  0  0  0
   -6.5032    2.2941    0.8877 H   0  0  0  0  0  0  0  0  0  0  0  0
   -5.7801    2.3715    2.5329 H   0  0  0  0  0  0  0  0  0  0  0  0
   -5.2769    1.2259   -0.9341 H   0  0  0  0  0  0  0  0  0  0  0  0
   -5.2500   -1.3365    0.6967 H   0  0  0  0  0  0  0  0  0  0  0  0
   -6.3063   -0.8561   -0.6895 H   0  0  0  0  0  0  0  0  0  0  0  0
   -4.7794   -1.6692   -2.2565 H   0  0  0  0  0  0  0  0  0  0  0  0
   -4.1860   -2.6787   -0.8744 H   0  0  0  0  0  0  0  0  0  0  0  0
   -2.6484   -0.8082   -2.3146 H   0  0  0  0  0  0  0  0  0  0  0  0
   -2.2683   -1.3546   -0.6188 H   0  0  0  0  0  0  0  0  0  0  0  0
   -0.5489    2.3426   -1.5495 H   0  0  0  0  0  0  0  0  0  0  0  0
   -0.8045    0.6012   -1.8785 H   0  0  0  0  0  0  0  0  0  0  0  0
   -0.6638    0.1278    0.6035 H   0  0  0  0  0  0  0  0  0  0  0  0
   -0.3790    1.8863    0.9025 H   0  0  0  0  0  0  0  0  0  0  0  0
    1.5741    1.0137   -1.0285 H   0  0  0  0  0  0  0  0  0  0  0  0
    4.1926    0.7440    2.7147 H   0  0  0  0  0  0  0  0  0  0  0  0
    6.5241    0.1343    2.3117 H   0  0  0  0  0  0  0  0  0  0  0  0
    5.5014   -1.1502   -1.6778 H   0  0  0  0  0  0  0  0  0  0  0  0
    3.1707   -0.5683   -1.2728 H   0  0  0  0  0  0  0  0  0  0  0  0
  1  2  1  0
  2  3  2  0
  2  4  1  0
  4  5  1  0
  5  6  1  0
  6  7  1  0
  7  8  1  0
  8  9  1  0
  9 10  2  0
  9 11  1  0
 11 12  1  0
 12 13  1  0
 13 14  1  0
 14 15  2  0
 14 16  1  0
 16 17  2  0
 17 18  1  0
 18 19  2  0
 19 20  1  0
 20 21  1  0
 20 22  1  0
 20 23  1  0
 19 24  1  0
 24 25  2  0
  8  4  1  0
 25 16  1  0
  1 26  1  0
  1 27  1  0
  4 28  1  6
  5 29  1  0
  5 30  1  0
  6 31  1  0
  6 32  1  0
  7 33  1  0
  7 34  1  0
 11 35  1  0
 11 36  1  0
 12 37  1  0
 12 38  1  0
 13 39  1  0
 17 40  1  0
 18 41  1  0
 24 42  1  0
 25 43  1  0
M  END
$$$$
