
     RDKit          3D

 48 49  0  0  0  0  0  0  0  0999 V2000
   -3.2356    1.7975   -1.1710 C   0  0  0  0  0  0  0  0  0  0  0  0
   -2.9701    0.9687    0.0956 C   0  0  0  0  0  0  0  0  0  0  0  0
   -4.1468    1.1115    1.0733 C   0  0  0  0  0  0  0  0  0  0  0  0
   -2.6032   -0.5111   -0.2522 C   0  0  2  0  0  0  0  0  0  0  0  0
   -3.8105   -1.3898   -0.6543 C   0  0  0  0  0  0  0  0  0  0  0  0
   -4.5199   -1.8931    0.5240 N   0  0  0  0  0  0  0  0  0  0  0  0
   -3.6343   -2.7658    1.2931 C   0  0  0  0  0  0  0  0  0  0  0  0
   -2.4682   -1.9635    1.8655 C   0  0  0  0  0  0  0  0  0  0  0  0
   -1.8144   -1.1334    0.8376 N   0  0  0  0  0  0  0  0  0  0  0  0
   -0.4267   -0.7694    1.0398 C   0  0  0  0  0  0  0  0  0  0  0  0
    0.0998   -0.9443    2.1743 O   0  0  0  0  0  0  0  0  0  0  0  0
    0.4129   -0.2159   -0.0931 C   0  0  0  0  0  0  0  0  0  0  0  0
    1.8759    0.0767    0.2994 C   0  0  2  0  0  0  0  0  0  0  0  0
    1.9124    1.1349    1.3156 N   0  0  0  0  0  0  0  0  0  0  0  0
    2.6960    0.4684   -0.9518 C   0  0  0  0  0  0  0  0  0  0  0  0
    4.1630    0.6298   -0.6374 C   0  0  0  0  0  0  0  0  0  0  0  0
    4.7022    1.9108   -0.4265 C   0  0  0  0  0  0  0  0  0  0  0  0
    6.0555    2.0638   -0.1109 C   0  0  0  0  0  0  0  0  0  0  0  0
    6.8798    0.9416    0.0009 C   0  0  0  0  0  0  0  0  0  0  0  0
    6.3520   -0.3364   -0.2005 C   0  0  0  0  0  0  0  0  0  0  0  0
    4.9986   -0.4966   -0.5160 C   0  0  0  0  0  0  0  0  0  0  0  0
    4.5044   -1.7469   -0.7025 F   0  0  0  0  0  0  0  0  0  0  0  0
   -3.3932    2.8641   -0.9027 H   0  0  0  0  0  0  0  0  0  0  0  0
   -4.1365    1.4350   -1.7080 H   0  0  0  0  0  0  0  0  0  0  0  0
   -2.3627    1.7470   -1.8561 H   0  0  0  0  0  0  0  0  0  0  0  0
   -2.0891    1.4329    0.5903 H   0  0  0  0  0  0  0  0  0  0  0  0
   -5.0945    0.7576    0.6160 H   0  0  0  0  0  0  0  0  0  0  0  0
   -3.9556    0.5465    2.0056 H   0  0  0  0  0  0  0  0  0  0  0  0
   -4.2776    2.1789    1.3522 H   0  0  0  0  0  0  0  0  0  0  0  0
   -1.9679   -0.4908   -1.1637 H   0  0  0  0  0  0  0  0  0  0  0  0
   -4.5162   -0.8131   -1.2879 H   0  0  0  0  0  0  0  0  0  0  0  0
   -3.4561   -2.2427   -1.2785 H   0  0  0  0  0  0  0  0  0  0  0  0
   -5.3233   -2.4736    0.1871 H   0  0  0  0  0  0  0  0  0  0  0  0
   -4.2046   -3.2177    2.1335 H   0  0  0  0  0  0  0  0  0  0  0  0
   -3.2506   -3.5983    0.6597 H   0  0  0  0  0  0  0  0  0  0  0  0
   -2.8226   -1.3175    2.6952 H   0  0  0  0  0  0  0  0  0  0  0  0
   -1.7418   -2.6896    2.2921 H   0  0  0  0  0  0  0  0  0  0  0  0
   -0.0467    0.7212   -0.4726 H   0  0  0  0  0  0  0  0  0  0  0  0
    0.4018   -0.9635   -0.9156 H   0  0  0  0  0  0  0  0  0  0  0  0
    2.3121   -0.8539    0.7284 H   0  0  0  0  0  0  0  0  0  0  0  0
    1.6925    2.0570    0.8727 H   0  0  0  0  0  0  0  0  0  0  0  0
    2.8762    1.1926    1.7167 H   0  0  0  0  0  0  0  0  0  0  0  0
    2.5844   -0.3171   -1.7312 H   0  0  0  0  0  0  0  0  0  0  0  0
    2.2902    1.4064   -1.3914 H   0  0  0  0  0  0  0  0  0  0  0  0
    4.0743    2.7899   -0.5019 H   0  0  0  0  0  0  0  0  0  0  0  0
    6.4646    3.0529    0.0495 H   0  0  0  0  0  0  0  0  0  0  0  0
    7.9271    1.0619    0.2461 H   0  0  0  0  0  0  0  0  0  0  0  0
    6.9930   -1.2039   -0.1098 H   0  0  0  0  0  0  0  0  0  0  0  0
  1  2  1  0
  2  3  1  0
  2  4  1  0
  4  5  1  0
  5  6  1  0
  6  7  1  0
  7  8  1  0
  8  9  1  0
  9 10  1  0
 10 11  2  0
 10 12  1  0
 12 13  1  0
 13 14  1  0
 13 15  1  0
 15 16  1  0
 16 17  2  0
 17 18  1  0
 18 19  2  0
 19 20  1  0
 20 21  2  0
 21 22  1  0
  9  4  1  0
 21 16  1  0
  1 23  1  0
  1 24  1  0
  1 25  1  0
  2 26  1  0
  3 27  1  0
  3 28  1  0
  3 29  1  0
  4 30  1  6
  5 31  1  0
  5 32  1  0
  6 33  1  0
  7 34  1  0
  7 35  1  0
  8 36  1  0
  8 37  1  0
 12 38  1  0
 12 39  1  0
 13 40  1  1
 14 41  1  0
 14 42  1  0
 15 43  1  0
 15 44  1  0
 17 45  1  0
 18 46  1  0
 19 47  1  0
 20 48  1  0
M  END
$$$$
