
     RDKit          3D

 58 61  0  0  0  0  0  0  0  0999 V2000
   -2.5769   -1.8816    0.6890 N   0  0  0  0  0  0  0  0  0  0  0  0
   -2.6405   -0.6046    1.4078 C   0  0  1  0  0  0  0  0  0  0  0  0
   -1.2501   -0.1667    1.9262 C   0  0  0  0  0  0  0  0  0  0  0  0
   -0.2659    0.1071    0.8233 C   0  0  0  0  0  0  0  0  0  0  0  0
   -0.1670    1.2780    0.3651 O   0  0  0  0  0  0  0  0  0  0  0  0
    0.5366   -0.9615    0.2862 N   0  0  0  0  0  0  0  0  0  0  0  0
    1.4030   -0.8331   -0.9052 C   0  0  0  0  0  0  0  0  0  0  0  0
    2.3848    0.3009   -0.6761 C   0  0  0  0  0  0  0  0  0  0  0  0
    3.0086    0.9934   -1.6506 N   0  0  0  0  0  0  0  0  0  0  0  0
    3.8114    1.8537   -1.0448 N   0  0  0  0  0  0  0  0  0  0  0  0
    3.6565    1.6502    0.2780 C   0  0  0  0  0  0  0  0  0  0  0  0
    4.3686    2.4007    1.3298 C   0  0  0  0  0  0  0  0  0  0  0  0
    5.2928    3.4056    0.9933 C   0  0  0  0  0  0  0  0  0  0  0  0
    5.9623    4.1124    1.9973 C   0  0  0  0  0  0  0  0  0  0  0  0
    5.7156    3.8234    3.3418 C   0  0  0  0  0  0  0  0  0  0  0  0
    4.7986    2.8267    3.6852 C   0  0  0  0  0  0  0  0  0  0  0  0
    4.1266    2.1170    2.6849 C   0  0  0  0  0  0  0  0  0  0  0  0
    2.7886    0.6945    0.5090 O   0  0  0  0  0  0  0  0  0  0  0  0
    2.2392   -2.1497   -1.0639 C   0  0  0  0  0  0  0  0  0  0  0  0
    2.7285   -2.4074   -2.4920 C   0  0  0  0  0  0  0  0  0  0  0  0
    1.3177   -2.7048   -3.5397 S   0  0  0  0  0  0  0  0  0  0  0  0
    0.9918   -4.1714   -3.5696 O   0  0  0  0  0  0  0  0  0  0  0  0
    1.6018   -2.2200   -4.9334 O   0  0  0  0  0  0  0  0  0  0  0  0
   -0.0422   -1.7939   -2.8350 C   0  0  0  0  0  0  0  0  0  0  0  0
    0.5038   -0.5343   -2.1584 C   0  0  0  0  0  0  0  0  0  0  0  0
   -3.2996    0.4802    0.5306 C   0  0  0  0  0  0  0  0  0  0  0  0
   -4.7236    0.1193    0.1875 C   0  0  0  0  0  0  0  0  0  0  0  0
   -5.0106   -0.5390   -1.0208 C   0  0  0  0  0  0  0  0  0  0  0  0
   -6.3244   -0.9022   -1.3328 C   0  0  0  0  0  0  0  0  0  0  0  0
   -6.5909   -1.5341   -2.5027 F   0  0  0  0  0  0  0  0  0  0  0  0
   -7.3606   -0.6175   -0.4383 C   0  0  0  0  0  0  0  0  0  0  0  0
   -8.6349   -0.9703   -0.7392 F   0  0  0  0  0  0  0  0  0  0  0  0
   -7.0829    0.0273    0.7702 C   0  0  0  0  0  0  0  0  0  0  0  0
   -5.7705    0.3925    1.0877 C   0  0  0  0  0  0  0  0  0  0  0  0
   -5.5211    1.0086    2.2711 F   0  0  0  0  0  0  0  0  0  0  0  0
   -2.1057   -2.5930    1.2938 H   0  0  0  0  0  0  0  0  0  0  0  0
   -2.0067   -1.7707   -0.1796 H   0  0  0  0  0  0  0  0  0  0  0  0
   -3.2831   -0.7516    2.3047 H   0  0  0  0  0  0  0  0  0  0  0  0
   -0.8410   -0.9525    2.5972 H   0  0  0  0  0  0  0  0  0  0  0  0
   -1.3644    0.7490    2.5467 H   0  0  0  0  0  0  0  0  0  0  0  0
    0.4732   -1.8831    0.7755 H   0  0  0  0  0  0  0  0  0  0  0  0
    5.4976    3.6443   -0.0428 H   0  0  0  0  0  0  0  0  0  0  0  0
    6.6728    4.8849    1.7326 H   0  0  0  0  0  0  0  0  0  0  0  0
    6.2346    4.3716    4.1174 H   0  0  0  0  0  0  0  0  0  0  0  0
    4.6079    2.6038    4.7270 H   0  0  0  0  0  0  0  0  0  0  0  0
    3.4188    1.3484    2.9701 H   0  0  0  0  0  0  0  0  0  0  0  0
    3.1152   -2.1373   -0.3775 H   0  0  0  0  0  0  0  0  0  0  0  0
    1.6313   -3.0314   -0.7620 H   0  0  0  0  0  0  0  0  0  0  0  0
    3.3000   -1.5326   -2.8673 H   0  0  0  0  0  0  0  0  0  0  0  0
    3.3915   -3.2981   -2.5098 H   0  0  0  0  0  0  0  0  0  0  0  0
   -0.5738   -2.4266   -2.0935 H   0  0  0  0  0  0  0  0  0  0  0  0
   -0.7536   -1.5149   -3.6408 H   0  0  0  0  0  0  0  0  0  0  0  0
    1.0687    0.0333   -2.9293 H   0  0  0  0  0  0  0  0  0  0  0  0
   -0.3561    0.1105   -1.8831 H   0  0  0  0  0  0  0  0  0  0  0  0
   -3.2864    1.4538    1.0676 H   0  0  0  0  0  0  0  0  0  0  0  0
   -2.7145    0.6234   -0.4042 H   0  0  0  0  0  0  0  0  0  0  0  0
   -4.2160   -0.7727   -1.7190 H   0  0  0  0  0  0  0  0  0  0  0  0
   -7.8857    0.2419    1.4639 H   0  0  0  0  0  0  0  0  0  0  0  0
  1  2  1  0
  2  3  1  0
  3  4  1  0
  4  5  2  0
  4  6  1  0
  6  7  1  0
  7  8  1  0
  8  9  2  0
  9 10  1  0
 10 11  2  0
 11 12  1  0
 12 13  2  0
 13 14  1  0
 14 15  2  0
 15 16  1  0
 16 17  2  0
 11 18  1  0
  7 19  1  0
 19 20  1  0
 20 21  1  0
 21 22  2  0
 21 23  2  0
 21 24  1  0
 24 25  1  0
  2 26  1  0
 26 27  1  0
 27 28  2  0
 28 29  1  0
 29 30  1  0
 29 31  2  0
 31 32  1  0
 31 33  1  0
 33 34  2  0
 34 35  1  0
 25  7  1  0
 34 27  1  0
 18  8  1  0
 17 12  1  0
  1 36  1  0
  1 37  1  0
  2 38  1  1
  3 39  1  0
  3 40  1  0
  6 41  1  0
 13 42  1  0
 14 43  1  0
 15 44  1  0
 16 45  1  0
 17 46  1  0
 19 47  1  0
 19 48  1  0
 20 49  1  0
 20 50  1  0
 24 51  1  0
 24 52  1  0
 25 53  1  0
 25 54  1  0
 26 55  1  0
 26 56  1  0
 28 57  1  0
 33 58  1  0
M  END
$$$$
