
     RDKit          3D

 67 68  0  0  0  0  0  0  0  0999 V2000
   -5.3397   -4.0522   -2.1376 C   0  0  0  0  0  0  0  0  0  0  0  0
   -4.9689   -4.4413   -0.7111 C   0  0  0  0  0  0  0  0  0  0  0  0
   -4.5693   -3.2941    0.0362 O   0  0  0  0  0  0  0  0  0  0  0  0
   -3.3271   -2.6689   -0.1192 C   0  0  0  0  0  0  0  0  0  0  0  0
   -2.4604   -3.1403   -0.9049 O   0  0  0  0  0  0  0  0  0  0  0  0
   -3.0144   -1.4453    0.6734 C   0  0  0  0  0  0  0  0  0  0  0  0
   -1.9891   -1.7458    1.6155 O   0  0  0  0  0  0  0  0  0  0  0  0
   -1.4127   -0.8104    2.4871 C   0  0  0  0  0  0  0  0  0  0  0  0
   -0.3817   -1.2383    3.3308 C   0  0  0  0  0  0  0  0  0  0  0  0
    0.2382   -0.3413    4.2035 C   0  0  0  0  0  0  0  0  0  0  0  0
   -0.1652    0.9951    4.2389 C   0  0  0  0  0  0  0  0  0  0  0  0
   -1.2013    1.4425    3.4046 C   0  0  0  0  0  0  0  0  0  0  0  0
   -1.5972    2.8958    3.3889 C   0  0  0  0  0  0  0  0  0  0  0  0
   -1.1897    3.5135    2.1287 N   0  0  0  0  0  0  0  0  0  0  0  0
    0.1891    3.6538    1.7585 C   0  0  0  0  0  0  0  0  0  0  0  0
    1.0948    3.4748    2.6186 O   0  0  0  0  0  0  0  0  0  0  0  0
    0.5633    3.9119    0.3252 C   0  0  0  0  0  0  0  0  0  0  0  0
    1.9452    5.0992    0.2516 S   0  0  0  0  0  0  0  0  0  0  0  0
    2.8804    4.0293   -0.8770 C   0  0  0  0  0  0  0  0  0  0  0  0
    2.3862    2.6051   -0.7057 C   0  0  0  0  0  0  0  0  0  0  0  0
    0.9860    2.6656   -0.3084 N   0  0  0  0  0  0  0  0  0  0  0  0
    0.0696    1.5648   -0.4919 C   0  0  0  0  0  0  0  0  0  0  0  0
   -1.1721    1.7679   -0.4139 O   0  0  0  0  0  0  0  0  0  0  0  0
    0.5555    0.1694   -0.7743 C   0  0  0  0  0  0  0  0  0  0  0  0
    0.5650   -0.1472   -2.2907 C   0  0  2  0  0  0  0  0  0  0  0  0
   -0.7972   -0.2674   -2.8191 N   0  0  0  0  0  0  0  0  0  0  0  0
    1.3322   -1.4505   -2.5894 C   0  0  0  0  0  0  0  0  0  0  0  0
    2.8105   -1.3172   -2.3064 C   0  0  0  0  0  0  0  0  0  0  0  0
    3.6236   -0.5774   -3.1824 C   0  0  0  0  0  0  0  0  0  0  0  0
    4.9851   -0.4098   -2.9129 C   0  0  0  0  0  0  0  0  0  0  0  0
    5.7584    0.3098   -3.7631 F   0  0  0  0  0  0  0  0  0  0  0  0
    5.5469   -0.9797   -1.7668 C   0  0  0  0  0  0  0  0  0  0  0  0
    6.8668   -0.8159   -1.5029 F   0  0  0  0  0  0  0  0  0  0  0  0
    4.7473   -1.7174   -0.8898 C   0  0  0  0  0  0  0  0  0  0  0  0
    3.3843   -1.8877   -1.1535 C   0  0  0  0  0  0  0  0  0  0  0  0
    2.6258   -2.5950   -0.2777 F   0  0  0  0  0  0  0  0  0  0  0  0
   -1.8267    0.5353    2.5337 C   0  0  0  0  0  0  0  0  0  0  0  0
    0.6878    0.0000    0.0000 Cl  0  0  0  0  0  0  0  0  0  0  0  0
   -4.4564   -3.6410   -2.6694 H   0  0  0  0  0  0  0  0  0  0  0  0
   -6.1453   -3.2880   -2.1245 H   0  0  0  0  0  0  0  0  0  0  0  0
   -5.7012   -4.9471   -2.6865 H   0  0  0  0  0  0  0  0  0  0  0  0
   -4.1582   -5.2020   -0.7165 H   0  0  0  0  0  0  0  0  0  0  0  0
   -5.8587   -4.8898   -0.2213 H   0  0  0  0  0  0  0  0  0  0  0  0
   -2.6741   -0.6451   -0.0176 H   0  0  0  0  0  0  0  0  0  0  0  0
   -3.9267   -1.1031    1.2077 H   0  0  0  0  0  0  0  0  0  0  0  0
   -0.0551   -2.2702    3.3043 H   0  0  0  0  0  0  0  0  0  0  0  0
    1.0389   -0.6809    4.8477 H   0  0  0  0  0  0  0  0  0  0  0  0
    0.3371    1.6814    4.9093 H   0  0  0  0  0  0  0  0  0  0  0  0
   -2.7011    2.9700    3.4962 H   0  0  0  0  0  0  0  0  0  0  0  0
   -1.1454    3.4510    4.2396 H   0  0  0  0  0  0  0  0  0  0  0  0
   -1.9321    3.7797    1.4432 H   0  0  0  0  0  0  0  0  0  0  0  0
   -0.2937    4.3447   -0.2339 H   0  0  0  0  0  0  0  0  0  0  0  0
    3.9673    4.0985   -0.6611 H   0  0  0  0  0  0  0  0  0  0  0  0
    2.6926    4.3695   -1.9178 H   0  0  0  0  0  0  0  0  0  0  0  0
    2.5089    2.0601   -1.6642 H   0  0  0  0  0  0  0  0  0  0  0  0
    2.9701    2.0901    0.0874 H   0  0  0  0  0  0  0  0  0  0  0  0
   -0.0882   -0.5613   -0.2396 H   0  0  0  0  0  0  0  0  0  0  0  0
    1.5699    0.0573   -0.3424 H   0  0  0  0  0  0  0  0  0  0  0  0
    1.0694    0.6799   -2.8367 H   0  0  0  0  0  0  0  0  0  0  0  0
   -1.2638    0.6673   -2.7878 H   0  0  0  0  0  0  0  0  0  0  0  0
   -1.3512   -0.9238   -2.2226 H   0  0  0  0  0  0  0  0  0  0  0  0
    0.8882   -2.2890   -2.0096 H   0  0  0  0  0  0  0  0  0  0  0  0
    1.2039   -1.7083   -3.6638 H   0  0  0  0  0  0  0  0  0  0  0  0
    3.1990   -0.1250   -4.0702 H   0  0  0  0  0  0  0  0  0  0  0  0
    5.1836   -2.1547   -0.0009 H   0  0  0  0  0  0  0  0  0  0  0  0
   -2.6192    0.8893    1.8880 H   0  0  0  0  0  0  0  0  0  0  0  0
   -0.6878    0.0000    0.0000 H   0  0  0  0  0  0  0  0  0  0  0  0
  1  2  1  0
  2  3  1  0
  3  4  1  0
  4  5  2  0
  4  6  1  0
  6  7  1  0
  7  8  1  0
  8  9  2  0
  9 10  1  0
 10 11  2  0
 11 12  1  0
 12 13  1  0
 13 14  1  0
 14 15  1  0
 15 16  2  0
 15 17  1  0
 17 18  1  0
 18 19  1  0
 19 20  1  0
 20 21  1  0
 21 22  1  0
 22 23  2  0
 22 24  1  0
 24 25  1  0
 25 26  1  0
 25 27  1  0
 27 28  1  0
 28 29  2  0
 29 30  1  0
 30 31  1  0
 30 32  2  0
 32 33  1  0
 32 34  1  0
 34 35  2  0
 35 36  1  0
 12 37  2  0
 37  8  1  0
 21 17  1  0
 35 28  1  0
  1 39  1  0
  1 40  1  0
  1 41  1  0
  2 42  1  0
  2 43  1  0
  6 44  1  0
  6 45  1  0
  9 46  1  0
 10 47  1  0
 11 48  1  0
 13 49  1  0
 13 50  1  0
 14 51  1  0
 17 52  1  0
 19 53  1  0
 19 54  1  0
 20 55  1  0
 20 56  1  0
 24 57  1  0
 24 58  1  0
 25 59  1  6
 26 60  1  0
 26 61  1  0
 27 62  1  0
 27 63  1  0
 29 64  1  0
 34 65  1  0
 37 66  1  0
 38 67  1  0
M  END
$$$$
