
     RDKit          3D

 66 71  0  0  0  0  0  0  0  0999 V2000
    4.6960   -0.5839   -0.3164 O   0  0  0  0  0  0  0  0  0  0  0  0
    3.9207    0.3114   -0.7485 C   0  0  0  0  0  0  0  0  0  0  0  0
    4.4375    1.6011   -1.0934 N   0  0  0  0  0  0  0  0  0  0  0  0
    5.8404    1.9640   -0.9068 C   0  0  0  0  0  0  0  0  0  0  0  0
    6.1411    2.1458    0.5561 C   0  0  0  0  0  0  0  0  0  0  0  0
    5.6302    3.2542    1.2465 C   0  0  0  0  0  0  0  0  0  0  0  0
    5.8971    3.3984    2.6102 C   0  0  0  0  0  0  0  0  0  0  0  0
    6.6431    2.4668    3.2614 N   0  0  0  0  0  0  0  0  0  0  0  0
    7.1464    1.3801    2.6179 C   0  0  0  0  0  0  0  0  0  0  0  0
    6.9035    1.1977    1.2543 C   0  0  0  0  0  0  0  0  0  0  0  0
    2.5477    0.0690   -0.9010 O   0  0  0  0  0  0  0  0  0  0  0  0
    1.8570   -1.1468   -0.5783 C   0  0  0  0  0  0  0  0  0  0  0  0
    2.3808   -2.3324   -1.4307 C   0  0  0  0  0  0  0  0  0  0  0  0
    1.5861   -3.6101   -1.0896 C   0  0  0  0  0  0  0  0  0  0  0  0
    1.7479   -3.9400    0.4083 C   0  0  0  0  0  0  0  0  0  0  0  0
    1.2015   -2.7725    1.2552 C   0  0  0  0  0  0  0  0  0  0  0  0
   -0.2935   -2.5554    0.9367 C   0  0  0  0  0  0  0  0  0  0  0  0
   -0.4745   -2.2044   -0.5685 C   0  0  0  0  0  0  0  0  0  0  0  0
   -1.9133   -2.0526   -0.9042 N   0  0  0  0  0  0  0  0  0  0  0  0
   -2.5586   -0.8291   -0.3965 C   0  0  0  0  0  0  0  0  0  0  0  0
   -4.0567   -0.9506   -0.4689 C   0  0  0  0  0  0  0  0  0  0  0  0
   -4.5857   -2.0802   -0.6588 O   0  0  0  0  0  0  0  0  0  0  0  0
   -4.8958    0.1995   -0.2742 N   0  0  0  0  0  0  0  0  0  0  0  0
   -6.3586    0.1412   -0.3061 C   0  0  0  0  0  0  0  0  0  0  0  0
   -6.7553    1.5394   -0.0129 C   0  0  0  0  0  0  0  0  0  0  0  0
   -8.0458    2.0627    0.0825 C   0  0  0  0  0  0  0  0  0  0  0  0
   -8.1956    3.4284    0.3734 C   0  0  0  0  0  0  0  0  0  0  0  0
   -7.0619    4.2421    0.5629 C   0  0  0  0  0  0  0  0  0  0  0  0
   -5.7727    3.6941    0.4625 C   0  0  0  0  0  0  0  0  0  0  0  0
   -5.6475    2.3344    0.1727 C   0  0  0  0  0  0  0  0  0  0  0  0
   -4.4007    1.5472    0.0187 C   0  0  0  0  0  0  0  0  0  0  0  0
    0.0948   -3.3864   -1.4063 C   0  0  0  0  0  0  0  0  0  0  0  0
    0.3562   -0.9283   -0.9002 C   0  0  0  0  0  0  0  0  0  0  0  0
    1.9927   -1.4856    0.9319 C   0  0  0  0  0  0  0  0  0  0  0  0
    3.7829    2.3119   -1.4906 H   0  0  0  0  0  0  0  0  0  0  0  0
    6.4936    1.1889   -1.3640 H   0  0  0  0  0  0  0  0  0  0  0  0
    6.0464    2.9186   -1.4380 H   0  0  0  0  0  0  0  0  0  0  0  0
    5.0302    3.9962    0.7341 H   0  0  0  0  0  0  0  0  0  0  0  0
    5.5088    4.2506    3.1516 H   0  0  0  0  0  0  0  0  0  0  0  0
    7.7342    0.6556    3.1656 H   0  0  0  0  0  0  0  0  0  0  0  0
    7.3036    0.3264    0.7508 H   0  0  0  0  0  0  0  0  0  0  0  0
    3.4572   -2.5195   -1.2362 H   0  0  0  0  0  0  0  0  0  0  0  0
    2.2775   -2.0984   -2.5133 H   0  0  0  0  0  0  0  0  0  0  0  0
    1.9703   -4.4577   -1.6981 H   0  0  0  0  0  0  0  0  0  0  0  0
    2.8205   -4.1135    0.6461 H   0  0  0  0  0  0  0  0  0  0  0  0
    1.1987   -4.8759    0.6527 H   0  0  0  0  0  0  0  0  0  0  0  0
    1.3169   -3.0153    2.3341 H   0  0  0  0  0  0  0  0  0  0  0  0
   -0.6694   -1.7439    1.5924 H   0  0  0  0  0  0  0  0  0  0  0  0
   -0.8699   -3.4735    1.1863 H   0  0  0  0  0  0  0  0  0  0  0  0
   -2.0217   -2.0433   -1.9467 H   0  0  0  0  0  0  0  0  0  0  0  0
   -2.2437    0.0435   -1.0091 H   0  0  0  0  0  0  0  0  0  0  0  0
   -2.2944   -0.6366    0.6609 H   0  0  0  0  0  0  0  0  0  0  0  0
   -6.7377   -0.5449    0.4811 H   0  0  0  0  0  0  0  0  0  0  0  0
   -6.7130   -0.1637   -1.3138 H   0  0  0  0  0  0  0  0  0  0  0  0
   -8.9122    1.4309   -0.0643 H   0  0  0  0  0  0  0  0  0  0  0  0
   -9.1862    3.8570    0.4523 H   0  0  0  0  0  0  0  0  0  0  0  0
   -7.1843    5.2938    0.7868 H   0  0  0  0  0  0  0  0  0  0  0  0
   -4.8966    4.3130    0.6065 H   0  0  0  0  0  0  0  0  0  0  0  0
   -3.8174    1.5513    0.9640 H   0  0  0  0  0  0  0  0  0  0  0  0
   -3.8008    1.9358   -0.8313 H   0  0  0  0  0  0  0  0  0  0  0  0
   -0.4763   -4.3167   -1.1902 H   0  0  0  0  0  0  0  0  0  0  0  0
   -0.0189   -3.1790   -2.4937 H   0  0  0  0  0  0  0  0  0  0  0  0
   -0.0036   -0.0617   -0.3040 H   0  0  0  0  0  0  0  0  0  0  0  0
    0.2337   -0.6663   -1.9747 H   0  0  0  0  0  0  0  0  0  0  0  0
    1.6119   -0.6412    1.5479 H   0  0  0  0  0  0  0  0  0  0  0  0
    3.0553   -1.6413    1.2114 H   0  0  0  0  0  0  0  0  0  0  0  0
  1  2  2  0
  2  3  1  0
  3  4  1  0
  4  5  1  0
  5  6  2  0
  6  7  1  0
  7  8  2  0
  8  9  1  0
  9 10  2  0
  2 11  1  0
 11 12  1  0
 12 13  1  0
 13 14  1  0
 14 15  1  0
 15 16  1  0
 16 17  1  0
 17 18  1  0
 18 19  1  0
 19 20  1  0
 20 21  1  0
 21 22  2  0
 21 23  1  0
 23 24  1  0
 24 25  1  0
 25 26  2  0
 26 27  1  0
 27 28  2  0
 28 29  1  0
 29 30  2  0
 30 31  1  0
 18 32  1  0
 18 33  1  0
 16 34  1  0
 10  5  1  0
 33 12  1  0
 34 12  1  0
 32 14  1  0
 31 23  1  0
 30 25  1  0
  3 35  1  0
  4 36  1  0
  4 37  1  0
  6 38  1  0
  7 39  1  0
  9 40  1  0
 10 41  1  0
 13 42  1  0
 13 43  1  0
 14 44  1  0
 15 45  1  0
 15 46  1  0
 16 47  1  0
 17 48  1  0
 17 49  1  0
 19 50  1  0
 20 51  1  0
 20 52  1  0
 24 53  1  0
 24 54  1  0
 26 55  1  0
 27 56  1  0
 28 57  1  0
 29 58  1  0
 31 59  1  0
 31 60  1  0
 32 61  1  0
 32 62  1  0
 33 63  1  0
 33 64  1  0
 34 65  1  0
 34 66  1  0
M  END
$$$$
