
     RDKit          3D

 61 62  0  0  0  0  0  0  0  0999 V2000
    0.6878    0.0000    0.0000 Cl  0  0  0  0  0  0  0  0  0  0  0  0
   -1.7027    0.6169    2.0070 N   0  0  0  0  0  0  0  0  0  0  0  0
   -0.9203    0.3724    0.7912 C   0  0  1  0  0  0  0  0  0  0  0  0
   -0.0462   -0.8868    0.9513 C   0  0  0  0  0  0  0  0  0  0  0  0
   -0.8481   -2.1375    1.2235 C   0  0  0  0  0  0  0  0  0  0  0  0
   -1.3653   -2.2762    2.3656 O   0  0  0  0  0  0  0  0  0  0  0  0
   -1.0562   -3.1613    0.2243 N   0  0  0  0  0  0  0  0  0  0  0  0
   -2.0885   -4.1714    0.4124 C   0  0  0  0  0  0  0  0  0  0  0  0
   -2.3684   -4.8137   -0.9337 C   0  0  0  0  0  0  0  0  0  0  0  0
   -0.8436   -4.7542   -1.9099 S   0  0  0  0  0  0  0  0  0  0  0  0
   -0.2930   -3.2670   -1.0213 C   0  0  0  0  0  0  0  0  0  0  0  0
    1.1825   -3.3847   -0.7609 C   0  0  0  0  0  0  0  0  0  0  0  0
    1.5979   -4.0082    0.2539 O   0  0  0  0  0  0  0  0  0  0  0  0
    2.1147   -2.8033   -1.6817 N   0  0  0  0  0  0  0  0  0  0  0  0
    3.4614   -2.4112   -1.2764 C   0  0  0  0  0  0  0  0  0  0  0  0
    3.4018   -1.1209   -0.5051 C   0  0  0  0  0  0  0  0  0  0  0  0
    3.5576   -1.1131    0.8889 C   0  0  0  0  0  0  0  0  0  0  0  0
    3.4313    0.0812    1.6050 C   0  0  0  0  0  0  0  0  0  0  0  0
    3.1372    1.2810    0.9460 C   0  0  0  0  0  0  0  0  0  0  0  0
    3.0166    2.4494    1.7165 O   0  0  0  0  0  0  0  0  0  0  0  0
    2.7431    3.7533    1.2039 C   0  0  0  0  0  0  0  0  0  0  0  0
    1.3059    3.8760    0.8079 C   0  0  0  0  0  0  0  0  0  0  0  0
    1.0002    4.2110   -0.3674 O   0  0  0  0  0  0  0  0  0  0  0  0
    0.3065    3.6431    1.7469 O   0  0  0  0  0  0  0  0  0  0  0  0
    2.9774    1.2723   -0.4529 C   0  0  0  0  0  0  0  0  0  0  0  0
    3.1076    0.0793   -1.1698 C   0  0  0  0  0  0  0  0  0  0  0  0
   -1.8419    0.2591   -0.4419 C   0  0  0  0  0  0  0  0  0  0  0  0
   -2.4668    1.5871   -0.7918 C   0  0  0  0  0  0  0  0  0  0  0  0
   -1.7136    2.5472   -1.4887 C   0  0  0  0  0  0  0  0  0  0  0  0
   -2.2640    3.7968   -1.7885 C   0  0  0  0  0  0  0  0  0  0  0  0
   -1.5274    4.7159   -2.4603 F   0  0  0  0  0  0  0  0  0  0  0  0
   -3.5702    4.0990   -1.3927 C   0  0  0  0  0  0  0  0  0  0  0  0
   -4.1050    5.3112   -1.6812 F   0  0  0  0  0  0  0  0  0  0  0  0
   -4.3257    3.1521   -0.6955 C   0  0  0  0  0  0  0  0  0  0  0  0
   -3.7797    1.9006   -0.3916 C   0  0  0  0  0  0  0  0  0  0  0  0
   -4.5273    1.0026    0.2988 F   0  0  0  0  0  0  0  0  0  0  0  0
   -0.6878    0.0000    0.0000 H   0  0  0  0  0  0  0  0  0  0  0  0
   -2.1503    1.5585    1.9324 H   0  0  0  0  0  0  0  0  0  0  0  0
   -1.0429    0.6879    2.8157 H   0  0  0  0  0  0  0  0  0  0  0  0
   -0.2229    1.2257    0.6321 H   0  0  0  0  0  0  0  0  0  0  0  0
    0.5795   -0.9894    0.0467 H   0  0  0  0  0  0  0  0  0  0  0  0
    0.6562   -0.7336    1.7981 H   0  0  0  0  0  0  0  0  0  0  0  0
   -1.7268   -4.9344    1.1351 H   0  0  0  0  0  0  0  0  0  0  0  0
   -3.0219   -3.7088    0.8016 H   0  0  0  0  0  0  0  0  0  0  0  0
   -2.7062   -5.8640   -0.8088 H   0  0  0  0  0  0  0  0  0  0  0  0
   -3.1525   -4.2376   -1.4704 H   0  0  0  0  0  0  0  0  0  0  0  0
   -0.5031   -2.3809   -1.6561 H   0  0  0  0  0  0  0  0  0  0  0  0
    1.7654   -2.4710   -2.6090 H   0  0  0  0  0  0  0  0  0  0  0  0
    3.9342   -3.2218   -0.6802 H   0  0  0  0  0  0  0  0  0  0  0  0
    4.0886   -2.2659   -2.1825 H   0  0  0  0  0  0  0  0  0  0  0  0
    3.7639   -2.0318    1.4237 H   0  0  0  0  0  0  0  0  0  0  0  0
    3.5515    0.0727    2.6809 H   0  0  0  0  0  0  0  0  0  0  0  0
    2.9456    4.4949    2.0040 H   0  0  0  0  0  0  0  0  0  0  0  0
    3.4203    3.9868    0.3539 H   0  0  0  0  0  0  0  0  0  0  0  0
   -0.6712    3.7297    1.4957 H   0  0  0  0  0  0  0  0  0  0  0  0
    2.7474    2.1768   -0.9969 H   0  0  0  0  0  0  0  0  0  0  0  0
    2.9653    0.0875   -2.2434 H   0  0  0  0  0  0  0  0  0  0  0  0
   -1.2497   -0.0860   -1.3172 H   0  0  0  0  0  0  0  0  0  0  0  0
   -2.6248   -0.5098   -0.2635 H   0  0  0  0  0  0  0  0  0  0  0  0
   -0.6978    2.3270   -1.7941 H   0  0  0  0  0  0  0  0  0  0  0  0
   -5.3354    3.3898   -0.3860 H   0  0  0  0  0  0  0  0  0  0  0  0
  2  3  1  0
  3  4  1  0
  4  5  1  0
  5  6  2  0
  5  7  1  0
  7  8  1  0
  8  9  1  0
  9 10  1  0
 10 11  1  0
 11 12  1  0
 12 13  2  0
 12 14  1  0
 14 15  1  0
 15 16  1  0
 16 17  2  0
 17 18  1  0
 18 19  2  0
 19 20  1  0
 20 21  1  0
 21 22  1  0
 22 23  2  0
 22 24  1  0
 19 25  1  0
 25 26  2  0
  3 27  1  0
 27 28  1  0
 28 29  2  0
 29 30  1  0
 30 31  1  0
 30 32  2  0
 32 33  1  0
 32 34  1  0
 34 35  2  0
 35 36  1  0
 11  7  1  0
 26 16  1  0
 35 28  1  0
  1 37  1  0
  2 38  1  0
  2 39  1  0
  3 40  1  6
  4 41  1  0
  4 42  1  0
  8 43  1  0
  8 44  1  0
  9 45  1  0
  9 46  1  0
 11 47  1  0
 14 48  1  0
 15 49  1  0
 15 50  1  0
 17 51  1  0
 18 52  1  0
 21 53  1  0
 21 54  1  0
 24 55  1  0
 25 56  1  0
 26 57  1  0
 27 58  1  0
 27 59  1  0
 29 60  1  0
 34 61  1  0
M  END
$$$$
