
     RDKit          3D

 52 55  0  0  0  0  0  0  0  0999 V2000
    6.5645   -1.3645    0.6663 C   0  0  0  0  0  0  0  0  0  0  0  0
    5.5665   -2.2690    1.1279 O   0  0  0  0  0  0  0  0  0  0  0  0
    4.1880   -2.1035    0.9228 C   0  0  0  0  0  0  0  0  0  0  0  0
    3.6567   -1.0005    0.2244 C   0  0  0  0  0  0  0  0  0  0  0  0
    2.2654   -0.8760    0.0443 C   0  0  0  0  0  0  0  0  0  0  0  0
    1.6886    0.2100   -0.6369 C   0  0  0  0  0  0  0  0  0  0  0  0
    2.4350    1.1059   -1.1238 O   0  0  0  0  0  0  0  0  0  0  0  0
    0.3221    0.3031   -0.7695 N   0  0  0  0  0  0  0  0  0  0  0  0
   -0.2587    1.5096   -1.3996 C   0  0  0  0  0  0  0  0  0  0  0  0
    0.0043    2.7422   -0.5554 C   0  0  0  0  0  0  0  0  0  0  0  0
   -0.4663    2.7622    0.7698 C   0  0  0  0  0  0  0  0  0  0  0  0
   -0.2537    3.8754    1.5852 C   0  0  0  0  0  0  0  0  0  0  0  0
    0.4267    4.9867    1.0882 C   0  0  0  0  0  0  0  0  0  0  0  0
    0.8952    4.9893   -0.2268 C   0  0  0  0  0  0  0  0  0  0  0  0
    0.6885    3.8777   -1.0566 C   0  0  0  0  0  0  0  0  0  0  0  0
    1.1898    3.9317   -2.4089 C   0  0  0  0  0  0  0  0  0  0  0  0
    1.5925    3.9754   -3.4930 N   0  0  0  0  0  0  0  0  0  0  0  0
   -0.4778   -0.7085   -0.2840 C   0  0  0  0  0  0  0  0  0  0  0  0
   -1.8973   -0.7200   -0.5045 N   0  0  0  0  0  0  0  0  0  0  0  0
   -2.4178   -1.0037   -1.8484 C   0  0  0  0  0  0  0  0  0  0  0  0
   -3.3186   -2.2412   -1.8026 C   0  0  0  0  0  0  0  0  0  0  0  0
   -4.4133   -2.1526   -0.7127 C   0  0  0  0  0  0  0  0  0  0  0  0
   -4.2613   -0.9317    0.2262 C   0  0  1  0  0  0  0  0  0  0  0  0
   -5.1210   -1.0574    1.4049 N   0  0  0  0  0  0  0  0  0  0  0  0
   -2.7966   -0.7472    0.6572 C   0  0  0  0  0  0  0  0  0  0  0  0
    0.0755   -1.7568    0.3792 N   0  0  0  0  0  0  0  0  0  0  0  0
    1.4114   -1.8607    0.5645 C   0  0  0  0  0  0  0  0  0  0  0  0
    1.9375   -2.9554    1.2560 C   0  0  0  0  0  0  0  0  0  0  0  0
    3.3180   -3.0748    1.4349 C   0  0  0  0  0  0  0  0  0  0  0  0
    3.8147   -4.1424    2.1085 F   0  0  0  0  0  0  0  0  0  0  0  0
    6.5318   -1.2925   -0.4414 H   0  0  0  0  0  0  0  0  0  0  0  0
    7.5630   -1.7417    0.9681 H   0  0  0  0  0  0  0  0  0  0  0  0
    6.4112   -0.3625    1.1200 H   0  0  0  0  0  0  0  0  0  0  0  0
    4.3186   -0.2434   -0.1741 H   0  0  0  0  0  0  0  0  0  0  0  0
   -1.3554    1.4363   -1.5239 H   0  0  0  0  0  0  0  0  0  0  0  0
    0.1475    1.6051   -2.4278 H   0  0  0  0  0  0  0  0  0  0  0  0
   -0.9949    1.9102    1.1752 H   0  0  0  0  0  0  0  0  0  0  0  0
   -0.6176    3.8761    2.6046 H   0  0  0  0  0  0  0  0  0  0  0  0
    0.5902    5.8484    1.7224 H   0  0  0  0  0  0  0  0  0  0  0  0
    1.4199    5.8617   -0.5983 H   0  0  0  0  0  0  0  0  0  0  0  0
   -1.5870   -1.1767   -2.5679 H   0  0  0  0  0  0  0  0  0  0  0  0
   -3.0061   -0.1339   -2.2119 H   0  0  0  0  0  0  0  0  0  0  0  0
   -3.7901   -2.3863   -2.7988 H   0  0  0  0  0  0  0  0  0  0  0  0
   -2.6799   -3.1303   -1.6057 H   0  0  0  0  0  0  0  0  0  0  0  0
   -4.3903   -3.0895   -0.1135 H   0  0  0  0  0  0  0  0  0  0  0  0
   -5.4116   -2.1023   -1.1998 H   0  0  0  0  0  0  0  0  0  0  0  0
   -4.5717   -0.0187   -0.3304 H   0  0  0  0  0  0  0  0  0  0  0  0
   -4.8950   -1.9462    1.9086 H   0  0  0  0  0  0  0  0  0  0  0  0
   -6.1152   -1.1241    1.0865 H   0  0  0  0  0  0  0  0  0  0  0  0
   -2.5028   -1.5821    1.3310 H   0  0  0  0  0  0  0  0  0  0  0  0
   -2.7006    0.2054    1.2194 H   0  0  0  0  0  0  0  0  0  0  0  0
    1.2773   -3.7162    1.6542 H   0  0  0  0  0  0  0  0  0  0  0  0
  1  2  1  0
  2  3  1  0
  3  4  2  0
  4  5  1  0
  5  6  1  0
  6  7  2  0
  6  8  1  0
  8  9  1  0
  9 10  1  0
 10 11  2  0
 11 12  1  0
 12 13  2  0
 13 14  1  0
 14 15  2  0
 15 16  1  0
 16 17  3  0
  8 18  1  0
 18 19  1  0
 19 20  1  0
 20 21  1  0
 21 22  1  0
 22 23  1  0
 23 24  1  0
 23 25  1  0
 18 26  2  0
 26 27  1  0
 27 28  1  0
 28 29  2  0
 29 30  1  0
 29  3  1  0
 27  5  2  0
 15 10  1  0
 25 19  1  0
  1 31  1  0
  1 32  1  0
  1 33  1  0
  4 34  1  0
  9 35  1  0
  9 36  1  0
 11 37  1  0
 12 38  1  0
 13 39  1  0
 14 40  1  0
 20 41  1  0
 20 42  1  0
 21 43  1  0
 21 44  1  0
 22 45  1  0
 22 46  1  0
 23 47  1  6
 24 48  1  0
 24 49  1  0
 25 50  1  0
 25 51  1  0
 28 52  1  0
M  END
$$$$
