
     RDKit          3D

 83 87  0  0  0  0  0  0  0  0999 V2000
   -6.2209    4.5608    1.3382 C   0  0  0  0  0  0  0  0  0  0  0  0
   -5.4946    3.6584    0.4454 C   0  0  0  0  0  0  0  0  0  0  0  0
   -4.8970    2.9125   -0.2886 C   0  0  0  0  0  0  0  0  0  0  0  0
   -4.1726    1.9987   -1.1772 C   0  0  0  0  0  0  0  0  0  0  0  0
   -4.1512    0.6512   -0.6030 N   0  0  0  0  0  0  0  0  0  0  0  0
   -4.8505   -0.4433   -1.0098 C   0  0  0  0  0  0  0  0  0  0  0  0
   -5.8179   -0.4275   -2.0716 N   0  0  0  0  0  0  0  0  0  0  0  0
   -5.8630   -1.5363   -3.0283 C   0  0  0  0  0  0  0  0  0  0  0  0
   -7.0378   -2.4596   -2.6916 C   0  0  0  0  0  0  0  0  0  0  0  0
   -8.3462   -1.6588   -2.5882 C   0  0  0  0  0  0  0  0  0  0  0  0
   -8.2283   -0.4902   -1.5861 C   0  0  1  0  0  0  0  0  0  0  0  0
   -8.0865   -1.0016   -0.2205 N   0  0  0  0  0  0  0  0  0  0  0  0
   -7.0242    0.3977   -1.9502 C   0  0  0  0  0  0  0  0  0  0  0  0
   -4.5445   -1.5741   -0.3225 N   0  0  0  0  0  0  0  0  0  0  0  0
   -3.6229   -1.1419    0.5594 C   0  0  0  0  0  0  0  0  0  0  0  0
   -3.3827    0.1812    0.3995 C   0  0  0  0  0  0  0  0  0  0  0  0
   -2.4424    0.8236    1.1975 C   0  0  0  0  0  0  0  0  0  0  0  0
   -2.2159    2.0561    1.0539 O   0  0  0  0  0  0  0  0  0  0  0  0
   -1.7654    0.0796    2.1393 N   0  0  0  0  0  0  0  0  0  0  0  0
   -0.7321    0.7145    2.9850 C   0  0  0  0  0  0  0  0  0  0  0  0
    0.6837    0.4291    2.4592 C   0  0  0  0  0  0  0  0  0  0  0  0
    0.9321    1.0771    1.0793 C   0  0  0  0  0  0  0  0  0  0  0  0
    2.3076    0.9056    0.5610 N   0  0  0  0  0  0  0  0  0  0  0  0
    2.6787   -0.5035    0.3475 C   0  0  0  0  0  0  0  0  0  0  0  0
    3.9798   -0.5753   -0.4540 C   0  0  0  0  0  0  0  0  0  0  0  0
    5.0221    0.2566    0.1709 N   0  0  0  0  0  0  0  0  0  0  0  0
    6.4146   -0.0941    0.0079 C   0  0  0  0  0  0  0  0  0  0  0  0
    7.3934    0.7562    0.4248 N   0  0  0  0  0  0  0  0  0  0  0  0
    8.7077    0.4473    0.2825 C   0  0  0  0  0  0  0  0  0  0  0  0
    9.0822   -0.7684   -0.2996 C   0  0  0  0  0  0  0  0  0  0  0  0
   10.5331   -1.1259   -0.4937 C   0  0  0  0  0  0  0  0  0  0  0  0
   10.9985   -0.8780   -1.9354 C   0  0  0  0  0  0  0  0  0  0  0  0
   11.0308    0.6080   -2.2910 C   0  0  0  0  0  0  0  0  0  0  0  0
    8.0664   -1.6285   -0.7294 C   0  0  0  0  0  0  0  0  0  0  0  0
    6.7649   -1.2782   -0.5665 N   0  0  0  0  0  0  0  0  0  0  0  0
    4.6556    1.6137    0.6106 C   0  0  0  0  0  0  0  0  0  0  0  0
    3.3274    1.5949    1.3695 C   0  0  0  0  0  0  0  0  0  0  0  0
   -2.0299   -1.2740    2.2780 C   0  0  0  0  0  0  0  0  0  0  0  0
   -1.3914   -1.9536    3.1310 O   0  0  0  0  0  0  0  0  0  0  0  0
   -2.9807   -1.8914    1.4951 N   0  0  0  0  0  0  0  0  0  0  0  0
   -3.2403   -3.3328    1.6103 C   0  0  0  0  0  0  0  0  0  0  0  0
   -7.2646    4.2033    1.4556 H   0  0  0  0  0  0  0  0  0  0  0  0
   -5.7229    4.5801    2.3294 H   0  0  0  0  0  0  0  0  0  0  0  0
   -6.2263    5.5829    0.9068 H   0  0  0  0  0  0  0  0  0  0  0  0
   -4.6648    1.9924   -2.1718 H   0  0  0  0  0  0  0  0  0  0  0  0
   -3.1359    2.3663   -1.3245 H   0  0  0  0  0  0  0  0  0  0  0  0
   -4.9118   -2.1124   -3.0153 H   0  0  0  0  0  0  0  0  0  0  0  0
   -5.9949   -1.1288   -4.0543 H   0  0  0  0  0  0  0  0  0  0  0  0
   -7.1386   -3.2330   -3.4829 H   0  0  0  0  0  0  0  0  0  0  0  0
   -6.8382   -2.9772   -1.7281 H   0  0  0  0  0  0  0  0  0  0  0  0
   -9.1709   -2.3383   -2.2824 H   0  0  0  0  0  0  0  0  0  0  0  0
   -8.6057   -1.2545   -3.5916 H   0  0  0  0  0  0  0  0  0  0  0  0
   -9.1542    0.1256   -1.6489 H   0  0  0  0  0  0  0  0  0  0  0  0
   -8.9486   -1.5432    0.0195 H   0  0  0  0  0  0  0  0  0  0  0  0
   -8.0670   -0.1880    0.4368 H   0  0  0  0  0  0  0  0  0  0  0  0
   -6.8972    1.1891   -1.1823 H   0  0  0  0  0  0  0  0  0  0  0  0
   -7.2182    0.9044   -2.9207 H   0  0  0  0  0  0  0  0  0  0  0  0
   -0.8126    0.3322    4.0264 H   0  0  0  0  0  0  0  0  0  0  0  0
   -0.8871    1.8126    3.0659 H   0  0  0  0  0  0  0  0  0  0  0  0
    1.4010    0.8339    3.2020 H   0  0  0  0  0  0  0  0  0  0  0  0
    0.8308   -0.6689    2.4010 H   0  0  0  0  0  0  0  0  0  0  0  0
    0.2226    0.6468    0.3403 H   0  0  0  0  0  0  0  0  0  0  0  0
    0.7006    2.1633    1.1379 H   0  0  0  0  0  0  0  0  0  0  0  0
    2.8262   -1.0294    1.3170 H   0  0  0  0  0  0  0  0  0  0  0  0
    1.8820   -1.0305   -0.2224 H   0  0  0  0  0  0  0  0  0  0  0  0
    3.7990   -0.2158   -1.4902 H   0  0  0  0  0  0  0  0  0  0  0  0
    4.2921   -1.6405   -0.5020 H   0  0  0  0  0  0  0  0  0  0  0  0
    9.4580    1.1510    0.6193 H   0  0  0  0  0  0  0  0  0  0  0  0
   11.1747   -0.5545    0.2128 H   0  0  0  0  0  0  0  0  0  0  0  0
   10.6742   -2.2023   -0.2537 H   0  0  0  0  0  0  0  0  0  0  0  0
   12.0242   -1.2900   -2.0518 H   0  0  0  0  0  0  0  0  0  0  0  0
   10.3361   -1.4158   -2.6483 H   0  0  0  0  0  0  0  0  0  0  0  0
   11.4483    0.7351   -3.3120 H   0  0  0  0  0  0  0  0  0  0  0  0
   10.0059    1.0346   -2.2772 H   0  0  0  0  0  0  0  0  0  0  0  0
   11.6715    1.1640   -1.5739 H   0  0  0  0  0  0  0  0  0  0  0  0
    8.3083   -2.5755   -1.1945 H   0  0  0  0  0  0  0  0  0  0  0  0
    5.4284    2.0386    1.2864 H   0  0  0  0  0  0  0  0  0  0  0  0
    4.5667    2.2737   -0.2794 H   0  0  0  0  0  0  0  0  0  0  0  0
    3.0187    2.6447    1.5683 H   0  0  0  0  0  0  0  0  0  0  0  0
    3.4816    1.0812    2.3441 H   0  0  0  0  0  0  0  0  0  0  0  0
   -4.2479   -3.5952    1.2229 H   0  0  0  0  0  0  0  0  0  0  0  0
   -2.4744   -3.8953    1.0361 H   0  0  0  0  0  0  0  0  0  0  0  0
   -3.2090   -3.6527    2.6738 H   0  0  0  0  0  0  0  0  0  0  0  0
  1  2  1  0
  2  3  3  0
  3  4  1  0
  4  5  1  0
  5  6  1  0
  6  7  1  0
  7  8  1  0
  8  9  1  0
  9 10  1  0
 10 11  1  0
 11 12  1  0
 11 13  1  0
  6 14  2  0
 14 15  1  0
 15 16  2  0
 16 17  1  0
 17 18  2  0
 17 19  1  0
 19 20  1  0
 20 21  1  0
 21 22  1  0
 22 23  1  0
 23 24  1  0
 24 25  1  0
 25 26  1  0
 26 27  1  0
 27 28  2  0
 28 29  1  0
 29 30  2  0
 30 31  1  0
 31 32  1  0
 32 33  1  0
 30 34  1  0
 34 35  2  0
 26 36  1  0
 36 37  1  0
 19 38  1  0
 38 39  2  0
 38 40  1  0
 40 41  1  0
 16  5  1  0
 37 23  1  0
 13  7  1  0
 40 15  1  0
 35 27  1  0
  1 42  1  0
  1 43  1  0
  1 44  1  0
  4 45  1  0
  4 46  1  0
  8 47  1  0
  8 48  1  0
  9 49  1  0
  9 50  1  0
 10 51  1  0
 10 52  1  0
 11 53  1  1
 12 54  1  0
 12 55  1  0
 13 56  1  0
 13 57  1  0
 20 58  1  0
 20 59  1  0
 21 60  1  0
 21 61  1  0
 22 62  1  0
 22 63  1  0
 24 64  1  0
 24 65  1  0
 25 66  1  0
 25 67  1  0
 29 68  1  0
 31 69  1  0
 31 70  1  0
 32 71  1  0
 32 72  1  0
 33 73  1  0
 33 74  1  0
 33 75  1  0
 34 76  1  0
 36 77  1  0
 36 78  1  0
 37 79  1  0
 37 80  1  0
 41 81  1  0
 41 82  1  0
 41 83  1  0
M  END
$$$$
