
     RDKit          3D

 50 52  0  0  0  0  0  0  0  0999 V2000
   -2.1693   -0.1182   -2.7147 N   0  0  0  0  0  0  0  0  0  0  0  0
   -1.9603   -0.5115   -1.3183 C   0  0  1  0  0  0  0  0  0  0  0  0
   -0.4910   -0.2522   -0.9125 C   0  0  0  0  0  0  0  0  0  0  0  0
   -0.0702   -1.0828    0.2719 C   0  0  0  0  0  0  0  0  0  0  0  0
   -0.4913   -0.7724    1.4184 O   0  0  0  0  0  0  0  0  0  0  0  0
    0.8359   -2.1927    0.1252 N   0  0  0  0  0  0  0  0  0  0  0  0
    0.9316   -2.9921   -1.0872 C   0  0  0  0  0  0  0  0  0  0  0  0
    1.8362   -4.1673   -0.7402 C   0  0  0  0  0  0  0  0  0  0  0  0
    1.9032   -4.2024    0.7830 C   0  0  0  0  0  0  0  0  0  0  0  0
    1.5633   -2.7830    1.2441 C   0  0  1  0  0  0  0  0  0  0  0  0
    2.8404   -1.9744    1.5510 C   0  0  0  0  0  0  0  0  0  0  0  0
    2.5099   -0.6563    2.0930 N   0  0  0  0  0  0  0  0  0  0  0  0
    2.4207    0.5253    1.2851 C   0  0  0  0  0  0  0  0  0  0  0  0
    1.8728    1.6559    1.8074 N   0  0  0  0  0  0  0  0  0  0  0  0
    1.7210    2.7750    1.0526 C   0  0  0  0  0  0  0  0  0  0  0  0
    2.1286    2.7736   -0.2803 C   0  0  0  0  0  0  0  0  0  0  0  0
    1.9767    3.8774   -1.0523 F   0  0  0  0  0  0  0  0  0  0  0  0
    2.6942    1.6110   -0.8017 C   0  0  0  0  0  0  0  0  0  0  0  0
    2.8266    0.5118   -0.0149 N   0  0  0  0  0  0  0  0  0  0  0  0
   -2.9738    0.2164   -0.3973 C   0  0  0  0  0  0  0  0  0  0  0  0
   -2.8627    1.7266   -0.4484 C   0  0  0  0  0  0  0  0  0  0  0  0
   -3.4531    2.4378   -1.5084 C   0  0  0  0  0  0  0  0  0  0  0  0
   -3.3292    3.8283   -1.5859 C   0  0  0  0  0  0  0  0  0  0  0  0
   -3.8989    4.5007   -2.6166 F   0  0  0  0  0  0  0  0  0  0  0  0
   -2.6187    4.5237   -0.6039 C   0  0  0  0  0  0  0  0  0  0  0  0
   -2.4950    5.8719   -0.6798 F   0  0  0  0  0  0  0  0  0  0  0  0
   -2.0392    3.8299    0.4609 C   0  0  0  0  0  0  0  0  0  0  0  0
   -2.1625    2.4396    0.5461 C   0  0  0  0  0  0  0  0  0  0  0  0
   -1.5987    1.7953    1.5979 F   0  0  0  0  0  0  0  0  0  0  0  0
   -3.1482   -0.3697   -2.9850 H   0  0  0  0  0  0  0  0  0  0  0  0
   -1.5533   -0.7068   -3.3219 H   0  0  0  0  0  0  0  0  0  0  0  0
   -2.1570   -1.6059   -1.2366 H   0  0  0  0  0  0  0  0  0  0  0  0
    0.1795   -0.4706   -1.7677 H   0  0  0  0  0  0  0  0  0  0  0  0
   -0.3242    0.8199   -0.6850 H   0  0  0  0  0  0  0  0  0  0  0  0
   -0.0783   -3.3543   -1.3786 H   0  0  0  0  0  0  0  0  0  0  0  0
    1.3784   -2.4004   -1.9141 H   0  0  0  0  0  0  0  0  0  0  0  0
    2.8549   -3.9895   -1.1502 H   0  0  0  0  0  0  0  0  0  0  0  0
    1.4389   -5.1213   -1.1498 H   0  0  0  0  0  0  0  0  0  0  0  0
    1.1282   -4.9049    1.1621 H   0  0  0  0  0  0  0  0  0  0  0  0
    2.8976   -4.5533    1.1365 H   0  0  0  0  0  0  0  0  0  0  0  0
    0.9193   -2.8363    2.1503 H   0  0  0  0  0  0  0  0  0  0  0  0
    3.4433   -2.5185    2.3098 H   0  0  0  0  0  0  0  0  0  0  0  0
    3.4684   -1.8808    0.6384 H   0  0  0  0  0  0  0  0  0  0  0  0
    2.1765   -0.6052    3.0822 H   0  0  0  0  0  0  0  0  0  0  0  0
    1.2775    3.6612    1.4865 H   0  0  0  0  0  0  0  0  0  0  0  0
    3.0199    1.5775   -1.8327 H   0  0  0  0  0  0  0  0  0  0  0  0
   -4.0036   -0.0765   -0.6980 H   0  0  0  0  0  0  0  0  0  0  0  0
   -2.8611   -0.1452    0.6459 H   0  0  0  0  0  0  0  0  0  0  0  0
   -4.0101    1.9151   -2.2756 H   0  0  0  0  0  0  0  0  0  0  0  0
   -1.4935    4.3707    1.2235 H   0  0  0  0  0  0  0  0  0  0  0  0
  1  2  1  0
  2  3  1  0
  3  4  1  0
  4  5  2  0
  4  6  1  0
  6  7  1  0
  7  8  1  0
  8  9  1  0
  9 10  1  0
 10 11  1  0
 11 12  1  0
 12 13  1  0
 13 14  2  0
 14 15  1  0
 15 16  2  0
 16 17  1  0
 16 18  1  0
 18 19  2  0
  2 20  1  0
 20 21  1  0
 21 22  2  0
 22 23  1  0
 23 24  1  0
 23 25  2  0
 25 26  1  0
 25 27  1  0
 27 28  2  0
 28 29  1  0
 10  6  1  0
 19 13  1  0
 28 21  1  0
  1 30  1  0
  1 31  1  0
  2 32  1  6
  3 33  1  0
  3 34  1  0
  7 35  1  0
  7 36  1  0
  8 37  1  0
  8 38  1  0
  9 39  1  0
  9 40  1  0
 10 41  1  1
 11 42  1  0
 11 43  1  0
 12 44  1  0
 15 45  1  0
 18 46  1  0
 20 47  1  0
 20 48  1  0
 22 49  1  0
 27 50  1  0
M  END
$$$$
