
     RDKit          3D

 46 48  0  0  0  0  0  0  0  0999 V2000
    6.3576    2.6090   -1.2490 C   0  0  0  0  0  0  0  0  0  0  0  0
    5.0003    2.2725   -1.5174 O   0  0  0  0  0  0  0  0  0  0  0  0
    4.2859    1.2689   -0.8465 C   0  0  0  0  0  0  0  0  0  0  0  0
    4.8596    0.4853    0.1720 C   0  0  0  0  0  0  0  0  0  0  0  0
    4.1043   -0.5023    0.8113 C   0  0  0  0  0  0  0  0  0  0  0  0
    2.7629   -0.7164    0.4557 C   0  0  0  0  0  0  0  0  0  0  0  0
    1.9835   -1.7769    1.1338 C   0  0  0  0  0  0  0  0  0  0  0  0
    2.4481   -3.0296    1.4774 C   0  0  0  0  0  0  0  0  0  0  0  0
    1.4602   -3.6707    2.1316 N   0  0  0  0  0  0  0  0  0  0  0  0
    0.4317   -2.8377    2.1990 N   0  0  0  0  0  0  0  0  0  0  0  0
    0.7200   -1.6901    1.6055 N   0  0  0  0  0  0  0  0  0  0  0  0
   -0.1878   -0.5414    1.5874 C   0  0  0  0  0  0  0  0  0  0  0  0
   -1.2165   -0.6618    0.4462 C   0  0  0  0  0  0  0  0  0  0  0  0
   -2.5750   -1.2335    0.9093 C   0  0  2  0  0  0  0  0  0  0  0  0
   -2.3934   -2.5815    1.4527 N   0  0  0  0  0  0  0  0  0  0  0  0
   -3.6049   -1.2584   -0.2450 C   0  0  0  0  0  0  0  0  0  0  0  0
   -4.0014    0.1299   -0.6879 C   0  0  0  0  0  0  0  0  0  0  0  0
   -4.9036    0.8777    0.0880 C   0  0  0  0  0  0  0  0  0  0  0  0
   -5.2638    2.1726   -0.2974 C   0  0  0  0  0  0  0  0  0  0  0  0
   -6.1362    2.8843    0.4584 F   0  0  0  0  0  0  0  0  0  0  0  0
   -4.7235    2.7331   -1.4585 C   0  0  0  0  0  0  0  0  0  0  0  0
   -5.0708    3.9894   -1.8326 F   0  0  0  0  0  0  0  0  0  0  0  0
   -3.8216    1.9995   -2.2339 C   0  0  0  0  0  0  0  0  0  0  0  0
   -3.4578    0.7034   -1.8538 C   0  0  0  0  0  0  0  0  0  0  0  0
   -2.5711    0.0155   -2.6172 F   0  0  0  0  0  0  0  0  0  0  0  0
    2.1996    0.0550   -0.5730 C   0  0  0  0  0  0  0  0  0  0  0  0
    2.9548    1.0420   -1.2123 C   0  0  0  0  0  0  0  0  0  0  0  0
    6.6663    3.4348   -1.9221 H   0  0  0  0  0  0  0  0  0  0  0  0
    6.4660    2.9482   -0.1971 H   0  0  0  0  0  0  0  0  0  0  0  0
    7.0127    1.7325   -1.4377 H   0  0  0  0  0  0  0  0  0  0  0  0
    5.8870    0.6307    0.4768 H   0  0  0  0  0  0  0  0  0  0  0  0
    4.5647   -1.0913    1.5952 H   0  0  0  0  0  0  0  0  0  0  0  0
    3.4252   -3.4465    1.2722 H   0  0  0  0  0  0  0  0  0  0  0  0
    0.3962    0.3957    1.4665 H   0  0  0  0  0  0  0  0  0  0  0  0
   -0.6968   -0.4569    2.5722 H   0  0  0  0  0  0  0  0  0  0  0  0
   -1.3791    0.3582    0.0371 H   0  0  0  0  0  0  0  0  0  0  0  0
   -0.8095   -1.2866   -0.3790 H   0  0  0  0  0  0  0  0  0  0  0  0
   -2.9716   -0.5823    1.7209 H   0  0  0  0  0  0  0  0  0  0  0  0
   -2.1448   -3.2383    0.6768 H   0  0  0  0  0  0  0  0  0  0  0  0
   -3.2993   -2.9062    1.8626 H   0  0  0  0  0  0  0  0  0  0  0  0
   -3.2016   -1.8449   -1.0991 H   0  0  0  0  0  0  0  0  0  0  0  0
   -4.5209   -1.7908    0.0935 H   0  0  0  0  0  0  0  0  0  0  0  0
   -5.3255    0.4561    0.9921 H   0  0  0  0  0  0  0  0  0  0  0  0
   -3.4011    2.4369   -3.1304 H   0  0  0  0  0  0  0  0  0  0  0  0
    1.1857   -0.1167   -0.9018 H   0  0  0  0  0  0  0  0  0  0  0  0
    2.5050    1.6295   -2.0028 H   0  0  0  0  0  0  0  0  0  0  0  0
  1  2  1  0
  2  3  1  0
  3  4  2  0
  4  5  1  0
  5  6  2  0
  6  7  1  0
  7  8  2  0
  8  9  1  0
  9 10  2  0
 10 11  1  0
 11 12  1  0
 12 13  1  0
 13 14  1  0
 14 15  1  0
 14 16  1  0
 16 17  1  0
 17 18  2  0
 18 19  1  0
 19 20  1  0
 19 21  2  0
 21 22  1  0
 21 23  1  0
 23 24  2  0
 24 25  1  0
  6 26  1  0
 26 27  2  0
 27  3  1  0
 11  7  1  0
 24 17  1  0
  1 28  1  0
  1 29  1  0
  1 30  1  0
  4 31  1  0
  5 32  1  0
  8 33  1  0
 12 34  1  0
 12 35  1  0
 13 36  1  0
 13 37  1  0
 14 38  1  1
 15 39  1  0
 15 40  1  0
 16 41  1  0
 16 42  1  0
 18 43  1  0
 23 44  1  0
 26 45  1  0
 27 46  1  0
M  END
$$$$
