
     RDKit          3D

 41 42  0  0  0  0  0  0  0  0999 V2000
    4.8144    1.7741   -0.4353 C   0  0  0  0  0  0  0  0  0  0  0  0
    3.9577    0.5922   -0.3159 N   0  0  0  0  0  0  0  0  0  0  0  0
    3.3826    0.2554    0.9943 C   0  0  0  0  0  0  0  0  0  0  0  0
    2.9700   -1.2111    1.0544 C   0  0  0  0  0  0  0  0  0  0  0  0
    2.1275   -1.5123   -0.1027 N   0  0  0  0  0  0  0  0  0  0  0  0
    0.8434   -2.1429    0.0442 C   0  0  0  0  0  0  0  0  0  0  0  0
    0.5350   -3.1093   -0.7047 O   0  0  0  0  0  0  0  0  0  0  0  0
   -0.1896   -1.6001    0.9951 C   0  0  0  0  0  0  0  0  0  0  0  0
   -1.2300   -0.7285    0.2579 C   0  0  2  0  0  0  0  0  0  0  0  0
   -0.6139    0.4785   -0.3057 N   0  0  0  0  0  0  0  0  0  0  0  0
   -2.3688   -0.3325    1.2161 C   0  0  0  0  0  0  0  0  0  0  0  0
   -3.4578    0.4245    0.4963 C   0  0  0  0  0  0  0  0  0  0  0  0
   -3.4597    1.8300    0.5011 C   0  0  0  0  0  0  0  0  0  0  0  0
   -4.4497    2.5377   -0.1876 C   0  0  0  0  0  0  0  0  0  0  0  0
   -4.4441    3.8937   -0.1740 F   0  0  0  0  0  0  0  0  0  0  0  0
   -5.4414    1.8483   -0.8920 C   0  0  0  0  0  0  0  0  0  0  0  0
   -6.4013    2.5335   -1.5613 F   0  0  0  0  0  0  0  0  0  0  0  0
   -5.4414    0.4508   -0.9107 C   0  0  0  0  0  0  0  0  0  0  0  0
   -4.4533   -0.2622   -0.2239 C   0  0  0  0  0  0  0  0  0  0  0  0
   -4.4660   -1.6189   -0.2631 F   0  0  0  0  0  0  0  0  0  0  0  0
    2.7161   -1.3601   -1.4343 C   0  0  0  0  0  0  0  0  0  0  0  0
    3.5589   -0.1166   -1.5098 C   0  0  0  0  0  0  0  0  0  0  0  0
    3.9549    0.2767   -2.6406 O   0  0  0  0  0  0  0  0  0  0  0  0
    4.9723    2.2601    0.5512 H   0  0  0  0  0  0  0  0  0  0  0  0
    5.8034    1.4783   -0.8442 H   0  0  0  0  0  0  0  0  0  0  0  0
    4.3423    2.5151   -1.1148 H   0  0  0  0  0  0  0  0  0  0  0  0
    4.1237    0.4470    1.8007 H   0  0  0  0  0  0  0  0  0  0  0  0
    2.4928    0.8959    1.1756 H   0  0  0  0  0  0  0  0  0  0  0  0
    2.4521   -1.4200    2.0130 H   0  0  0  0  0  0  0  0  0  0  0  0
    3.8773   -1.8532    1.0235 H   0  0  0  0  0  0  0  0  0  0  0  0
   -0.7009   -2.4616    1.4777 H   0  0  0  0  0  0  0  0  0  0  0  0
    0.2803   -1.0037    1.8033 H   0  0  0  0  0  0  0  0  0  0  0  0
   -1.6695   -1.3285   -0.5713 H   0  0  0  0  0  0  0  0  0  0  0  0
    0.0301    0.2063   -1.0827 H   0  0  0  0  0  0  0  0  0  0  0  0
   -0.0443    0.9588    0.4288 H   0  0  0  0  0  0  0  0  0  0  0  0
   -1.9617    0.2827    2.0492 H   0  0  0  0  0  0  0  0  0  0  0  0
   -2.8056   -1.2450    1.6782 H   0  0  0  0  0  0  0  0  0  0  0  0
   -2.6925    2.3765    1.0359 H   0  0  0  0  0  0  0  0  0  0  0  0
   -6.2069   -0.0812   -1.4609 H   0  0  0  0  0  0  0  0  0  0  0  0
    1.9145   -1.2937   -2.2024 H   0  0  0  0  0  0  0  0  0  0  0  0
    3.3494   -2.2446   -1.6586 H   0  0  0  0  0  0  0  0  0  0  0  0
  1  2  1  0
  2  3  1  0
  3  4  1  0
  4  5  1  0
  5  6  1  0
  6  7  2  0
  6  8  1  0
  8  9  1  0
  9 10  1  0
  9 11  1  0
 11 12  1  0
 12 13  2  0
 13 14  1  0
 14 15  1  0
 14 16  2  0
 16 17  1  0
 16 18  1  0
 18 19  2  0
 19 20  1  0
  5 21  1  0
 21 22  1  0
 22 23  2  0
 22  2  1  0
 19 12  1  0
  1 24  1  0
  1 25  1  0
  1 26  1  0
  3 27  1  0
  3 28  1  0
  4 29  1  0
  4 30  1  0
  8 31  1  0
  8 32  1  0
  9 33  1  6
 10 34  1  0
 10 35  1  0
 11 36  1  0
 11 37  1  0
 13 38  1  0
 18 39  1  0
 21 40  1  0
 21 41  1  0
M  END
$$$$
