
     RDKit          3D

 41 44  0  0  0  0  0  0  0  0999 V2000
   -1.3827    0.3355    1.9593 N   0  0  0  0  0  0  0  0  0  0  0  0
   -1.0310   -0.8247    1.1306 C   0  0  2  0  0  0  0  0  0  0  0  0
    0.4925   -0.9397    0.9821 C   0  0  0  0  0  0  0  0  0  0  0  0
    1.1003    0.2502    0.1892 C   0  0  1  0  0  0  0  0  0  0  0  0
    2.2455   -0.2023   -0.6461 N   0  0  0  0  0  0  0  0  0  0  0  0
    2.9342    0.9153   -1.3510 C   0  0  0  0  0  0  0  0  0  0  0  0
    4.3694    0.5904   -1.2616 C   0  0  0  0  0  0  0  0  0  0  0  0
    5.4774    1.4036   -1.1397 C   0  0  0  0  0  0  0  0  0  0  0  0
    6.3186    0.8410   -0.2424 N   0  0  0  0  0  0  0  0  0  0  0  0
    5.7507   -0.2720    0.2033 N   0  0  0  0  0  0  0  0  0  0  0  0
    4.5726   -0.4271   -0.4221 C   0  0  0  0  0  0  0  0  0  0  0  0
    3.2974   -0.9015    0.1453 C   0  0  0  0  0  0  0  0  0  0  0  0
   -0.0015    0.9240   -0.6749 C   0  0  0  0  0  0  0  0  0  0  0  0
   -0.8706   -0.0278   -1.2607 O   0  0  0  0  0  0  0  0  0  0  0  0
   -1.6521   -0.7373   -0.2997 C   0  0  2  0  0  0  0  0  0  0  0  0
   -3.1137   -0.3095   -0.2969 C   0  0  0  0  0  0  0  0  0  0  0  0
   -4.0646   -1.1907    0.2546 C   0  0  0  0  0  0  0  0  0  0  0  0
   -5.4167   -0.8425    0.3081 C   0  0  0  0  0  0  0  0  0  0  0  0
   -6.3172   -1.7025    0.8444 F   0  0  0  0  0  0  0  0  0  0  0  0
   -5.8406    0.3902   -0.1883 C   0  0  0  0  0  0  0  0  0  0  0  0
   -4.9139    1.2755   -0.7404 C   0  0  0  0  0  0  0  0  0  0  0  0
   -3.5575    0.9367   -0.7983 C   0  0  0  0  0  0  0  0  0  0  0  0
   -2.7021    1.8264   -1.3578 F   0  0  0  0  0  0  0  0  0  0  0  0
   -0.8773    0.2584    2.8718 H   0  0  0  0  0  0  0  0  0  0  0  0
   -2.3982    0.2781    2.2006 H   0  0  0  0  0  0  0  0  0  0  0  0
   -1.4029   -1.7473    1.6333 H   0  0  0  0  0  0  0  0  0  0  0  0
    0.7067   -1.8948    0.4524 H   0  0  0  0  0  0  0  0  0  0  0  0
    0.9655   -1.0116    1.9858 H   0  0  0  0  0  0  0  0  0  0  0  0
    1.4567    1.0076    0.9255 H   0  0  0  0  0  0  0  0  0  0  0  0
    2.7522    1.8985   -0.8603 H   0  0  0  0  0  0  0  0  0  0  0  0
    2.6208    0.9496   -2.4154 H   0  0  0  0  0  0  0  0  0  0  0  0
    5.5958    2.3994   -1.5451 H   0  0  0  0  0  0  0  0  0  0  0  0
    6.1023   -0.8270    1.0145 H   0  0  0  0  0  0  0  0  0  0  0  0
    3.2088   -2.0006    0.0193 H   0  0  0  0  0  0  0  0  0  0  0  0
    3.2629   -0.6297    1.2244 H   0  0  0  0  0  0  0  0  0  0  0  0
    0.4354    1.5360   -1.4878 H   0  0  0  0  0  0  0  0  0  0  0  0
   -0.5747    1.6500   -0.0582 H   0  0  0  0  0  0  0  0  0  0  0  0
   -1.6569   -1.7864   -0.6719 H   0  0  0  0  0  0  0  0  0  0  0  0
   -3.7546   -2.1508    0.6488 H   0  0  0  0  0  0  0  0  0  0  0  0
   -6.8880    0.6605   -0.1473 H   0  0  0  0  0  0  0  0  0  0  0  0
   -5.2491    2.2293   -1.1275 H   0  0  0  0  0  0  0  0  0  0  0  0
  1  2  1  0
  2  3  1  0
  3  4  1  0
  4  5  1  0
  5  6  1  0
  6  7  1  0
  7  8  1  0
  8  9  2  0
  9 10  1  0
 10 11  1  0
 11 12  1  0
  4 13  1  0
 13 14  1  0
 14 15  1  0
 15 16  1  0
 16 17  2  0
 17 18  1  0
 18 19  1  0
 18 20  2  0
 20 21  1  0
 21 22  2  0
 22 23  1  0
 15  2  1  0
 22 16  1  0
 12  5  1  0
 11  7  2  0
  1 24  1  0
  1 25  1  0
  2 26  1  1
  3 27  1  0
  3 28  1  0
  4 29  1  1
  6 30  1  0
  6 31  1  0
  8 32  1  0
 10 33  1  0
 12 34  1  0
 12 35  1  0
 13 36  1  0
 13 37  1  0
 15 38  1  6
 17 39  1  0
 20 40  1  0
 21 41  1  0
M  END
$$$$
