
     RDKit          3D

 37 38  0  0  0  0  0  0  0  0999 V2000
   -4.6455   -0.9190    1.1229 C   0  0  0  0  0  0  0  0  0  0  0  0
   -3.6904    0.2820    1.1221 C   0  0  0  0  0  0  0  0  0  0  0  0
   -2.8053    0.4371   -0.1516 C   0  0  2  0  0  0  0  0  0  0  0  0
   -3.5881    0.1434   -1.4437 C   0  0  0  0  0  0  0  0  0  0  0  0
   -1.4560   -0.3498   -0.1204 C   0  0  2  0  0  0  0  0  0  0  0  0
   -1.6430   -1.7318    0.3276 N   0  0  0  0  0  0  0  0  0  0  0  0
   -0.3853    0.3423    0.7090 C   0  0  0  0  0  0  0  0  0  0  0  0
   -0.7065    0.9223    1.7815 O   0  0  0  0  0  0  0  0  0  0  0  0
    1.0028    0.2998    0.3291 N   0  0  0  0  0  0  0  0  0  0  0  0
    2.0676    0.8842    1.1482 C   0  0  0  0  0  0  0  0  0  0  0  0
    3.2948    0.5767    0.3760 C   0  0  0  0  0  0  0  0  0  0  0  0
    4.6140    0.9001    0.6974 C   0  0  0  0  0  0  0  0  0  0  0  0
    5.6343    0.5075   -0.1841 C   0  0  0  0  0  0  0  0  0  0  0  0
    5.3217   -0.1965   -1.3635 C   0  0  0  0  0  0  0  0  0  0  0  0
    6.3123   -0.5718   -2.2094 F   0  0  0  0  0  0  0  0  0  0  0  0
    3.9864   -0.5109   -1.6660 C   0  0  0  0  0  0  0  0  0  0  0  0
    2.9891   -0.1110   -0.7750 C   0  0  0  0  0  0  0  0  0  0  0  0
    1.5272   -0.3284   -0.8876 C   0  0  0  0  0  0  0  0  0  0  0  0
   -5.4462   -0.7824    0.3664 H   0  0  0  0  0  0  0  0  0  0  0  0
   -4.1141   -1.8690    0.9205 H   0  0  0  0  0  0  0  0  0  0  0  0
   -5.1314   -0.9993    2.1182 H   0  0  0  0  0  0  0  0  0  0  0  0
   -3.0586    0.2260    2.0313 H   0  0  0  0  0  0  0  0  0  0  0  0
   -4.3111    1.1984    1.2304 H   0  0  0  0  0  0  0  0  0  0  0  0
   -2.5387    1.5170   -0.2131 H   0  0  0  0  0  0  0  0  0  0  0  0
   -3.7992   -0.9428   -1.5400 H   0  0  0  0  0  0  0  0  0  0  0  0
   -2.9999    0.4653   -2.3296 H   0  0  0  0  0  0  0  0  0  0  0  0
   -4.5460    0.7062   -1.4509 H   0  0  0  0  0  0  0  0  0  0  0  0
   -1.0876   -0.3819   -1.1679 H   0  0  0  0  0  0  0  0  0  0  0  0
   -0.7912   -2.2834    0.0752 H   0  0  0  0  0  0  0  0  0  0  0  0
   -1.7153   -1.7552    1.3712 H   0  0  0  0  0  0  0  0  0  0  0  0
    2.1024    0.3964    2.1457 H   0  0  0  0  0  0  0  0  0  0  0  0
    1.9285    1.9825    1.2400 H   0  0  0  0  0  0  0  0  0  0  0  0
    4.8464    1.4413    1.6054 H   0  0  0  0  0  0  0  0  0  0  0  0
    6.6645    0.7476    0.0449 H   0  0  0  0  0  0  0  0  0  0  0  0
    3.7362   -1.0512   -2.5699 H   0  0  0  0  0  0  0  0  0  0  0  0
    1.1331    0.1824   -1.7917 H   0  0  0  0  0  0  0  0  0  0  0  0
    1.2979   -1.4146   -0.8986 H   0  0  0  0  0  0  0  0  0  0  0  0
  1  2  1  0
  2  3  1  0
  3  4  1  0
  3  5  1  0
  5  6  1  0
  5  7  1  0
  7  8  2  0
  7  9  1  0
  9 10  1  0
 10 11  1  0
 11 12  2  0
 12 13  1  0
 13 14  2  0
 14 15  1  0
 14 16  1  0
 16 17  2  0
 17 18  1  0
 18  9  1  0
 17 11  1  0
  1 19  1  0
  1 20  1  0
  1 21  1  0
  2 22  1  0
  2 23  1  0
  3 24  1  6
  4 25  1  0
  4 26  1  0
  4 27  1  0
  5 28  1  6
  6 29  1  0
  6 30  1  0
 10 31  1  0
 10 32  1  0
 12 33  1  0
 13 34  1  0
 16 35  1  0
 18 36  1  0
 18 37  1  0
M  END
$$$$
