
     RDKit          3D

 47 50  0  0  0  0  0  0  0  0999 V2000
    2.3614    1.4294    2.7671 N   0  0  0  0  0  0  0  0  0  0  0  0
    2.2139    0.5534    1.6045 C   0  0  1  0  0  0  0  0  0  0  0  0
    0.7494    0.4497    1.1742 C   0  0  0  0  0  0  0  0  0  0  0  0
    0.7561    0.5047   -0.2808 N   0  0  0  0  0  0  0  0  0  0  0  0
   -0.4005    0.2839   -1.1118 C   0  0  0  0  0  0  0  0  0  0  0  0
   -1.6747    0.0862   -0.5559 C   0  0  0  0  0  0  0  0  0  0  0  0
   -2.7668   -0.1276   -1.4131 C   0  0  0  0  0  0  0  0  0  0  0  0
   -4.1403   -0.3412   -0.8890 C   0  0  0  0  0  0  0  0  0  0  0  0
   -5.2496    0.0559   -1.6556 C   0  0  0  0  0  0  0  0  0  0  0  0
   -6.5474   -0.1551   -1.1868 C   0  0  0  0  0  0  0  0  0  0  0  0
   -6.7575   -0.7627    0.0519 C   0  0  0  0  0  0  0  0  0  0  0  0
   -5.6663   -1.1557    0.8441 C   0  0  0  0  0  0  0  0  0  0  0  0
   -5.8908   -1.8682    2.1546 C   0  0  0  0  0  0  0  0  0  0  0  0
   -5.9308   -3.2316    1.9302 F   0  0  0  0  0  0  0  0  0  0  0  0
   -4.8673   -1.5869    3.0430 F   0  0  0  0  0  0  0  0  0  0  0  0
   -7.0847   -1.4711    2.7318 F   0  0  0  0  0  0  0  0  0  0  0  0
   -4.3614   -0.9659    0.3545 C   0  0  0  0  0  0  0  0  0  0  0  0
   -2.5606   -0.1182   -2.7583 N   0  0  0  0  0  0  0  0  0  0  0  0
   -1.3253    0.0779   -3.2839 C   0  0  0  0  0  0  0  0  0  0  0  0
   -0.2615    0.2742   -2.4653 N   0  0  0  0  0  0  0  0  0  0  0  0
    2.0672    0.8101   -0.8294 C   0  0  0  0  0  0  0  0  0  0  0  0
    2.9522    1.1256    0.3797 C   0  0  2  0  0  0  0  0  0  0  0  0
    4.3764    0.6096    0.2401 C   0  0  0  0  0  0  0  0  0  0  0  0
    5.4470    1.5210    0.3063 C   0  0  0  0  0  0  0  0  0  0  0  0
    6.7678    1.0786    0.1884 C   0  0  0  0  0  0  0  0  0  0  0  0
    7.7872    1.9707    0.2537 F   0  0  0  0  0  0  0  0  0  0  0  0
    7.0378   -0.2793    0.0048 C   0  0  0  0  0  0  0  0  0  0  0  0
    8.3188   -0.7091   -0.1092 F   0  0  0  0  0  0  0  0  0  0  0  0
    5.9871   -1.1966   -0.0600 C   0  0  0  0  0  0  0  0  0  0  0  0
    4.6627   -0.7627    0.0572 C   0  0  0  0  0  0  0  0  0  0  0  0
    3.6683   -1.6843   -0.0075 F   0  0  0  0  0  0  0  0  0  0  0  0
    3.3735    1.4487    3.0306 H   0  0  0  0  0  0  0  0  0  0  0  0
    1.8586    0.9882    3.5715 H   0  0  0  0  0  0  0  0  0  0  0  0
    2.5839   -0.4652    1.8589 H   0  0  0  0  0  0  0  0  0  0  0  0
    0.1491    1.2984    1.5700 H   0  0  0  0  0  0  0  0  0  0  0  0
    0.3166   -0.5131    1.5233 H   0  0  0  0  0  0  0  0  0  0  0  0
   -1.8174    0.1274    0.5146 H   0  0  0  0  0  0  0  0  0  0  0  0
   -5.1135    0.5348   -2.6174 H   0  0  0  0  0  0  0  0  0  0  0  0
   -7.3941    0.1497   -1.7883 H   0  0  0  0  0  0  0  0  0  0  0  0
   -7.7732   -0.9310    0.3870 H   0  0  0  0  0  0  0  0  0  0  0  0
   -3.5233   -1.3310    0.9338 H   0  0  0  0  0  0  0  0  0  0  0  0
   -1.1885    0.0777   -4.3564 H   0  0  0  0  0  0  0  0  0  0  0  0
    2.4316   -0.0588   -1.4166 H   0  0  0  0  0  0  0  0  0  0  0  0
    2.0043    1.6943   -1.5013 H   0  0  0  0  0  0  0  0  0  0  0  0
    2.9645    2.2361    0.4794 H   0  0  0  0  0  0  0  0  0  0  0  0
    5.2609    2.5781    0.4505 H   0  0  0  0  0  0  0  0  0  0  0  0
    6.1992   -2.2488   -0.2007 H   0  0  0  0  0  0  0  0  0  0  0  0
  1  2  1  0
  2  3  1  0
  3  4  1  0
  4  5  1  0
  5  6  2  0
  6  7  1  0
  7  8  1  0
  8  9  2  0
  9 10  1  0
 10 11  2  0
 11 12  1  0
 12 13  1  0
 13 14  1  0
 13 15  1  0
 13 16  1  0
 12 17  2  0
  7 18  2  0
 18 19  1  0
 19 20  2  0
  4 21  1  0
 21 22  1  0
 22 23  1  0
 23 24  2  0
 24 25  1  0
 25 26  1  0
 25 27  2  0
 27 28  1  0
 27 29  1  0
 29 30  2  0
 30 31  1  0
 22  2  1  0
 30 23  1  0
 20  5  1  0
 17  8  1  0
  1 32  1  0
  1 33  1  0
  2 34  1  1
  3 35  1  0
  3 36  1  0
  6 37  1  0
  9 38  1  0
 10 39  1  0
 11 40  1  0
 17 41  1  0
 19 42  1  0
 21 43  1  0
 21 44  1  0
 22 45  1  1
 24 46  1  0
 29 47  1  0
M  END
$$$$
