
     RDKit          3D

 36 39  0  0  0  0  0  0  0  0999 V2000
    1.3173   -2.0852   -0.6312 C   0  0  0  0  0  0  0  0  0  0  0  0
    0.8313   -0.7176   -0.2412 C   0  0  0  0  0  0  0  0  0  0  0  0
   -0.5204   -0.5078   -0.1935 N   0  0  0  0  0  0  0  0  0  0  0  0
   -0.9802    0.7079    0.1785 C   0  0  0  0  0  0  0  0  0  0  0  0
   -0.1467    1.7307    0.4682 C   0  0  0  0  0  0  0  0  0  0  0  0
   -0.9619    2.8130    0.7213 C   0  0  0  0  0  0  0  0  0  0  0  0
   -2.2502    2.4142    0.5728 N   0  0  0  0  0  0  0  0  0  0  0  0
   -2.2597    1.1235    0.2466 N   0  0  0  0  0  0  0  0  0  0  0  0
   -3.4606    0.3720   -0.0121 C   0  0  0  0  0  0  0  0  0  0  0  0
   -4.6069    1.0299   -0.4921 C   0  0  0  0  0  0  0  0  0  0  0  0
   -5.7827    0.3153   -0.7410 C   0  0  0  0  0  0  0  0  0  0  0  0
   -5.8296   -1.0602   -0.5040 C   0  0  0  0  0  0  0  0  0  0  0  0
   -4.7026   -1.7223   -0.0120 C   0  0  0  0  0  0  0  0  0  0  0  0
   -3.5239   -1.0122    0.2375 C   0  0  0  0  0  0  0  0  0  0  0  0
    1.2264    1.5541    0.4140 C   0  0  0  0  0  0  0  0  0  0  0  0
    2.0016    2.5182    0.6640 O   0  0  0  0  0  0  0  0  0  0  0  0
    1.7119    0.3130    0.0614 N   0  0  0  0  0  0  0  0  0  0  0  0
    3.1359    0.1049   -0.0083 C   0  0  0  0  0  0  0  0  0  0  0  0
    3.9314    0.2336    1.1400 C   0  0  0  0  0  0  0  0  0  0  0  0
    5.3085    0.0242    1.0471 C   0  0  0  0  0  0  0  0  0  0  0  0
    5.8792   -0.3100   -0.1831 C   0  0  0  0  0  0  0  0  0  0  0  0
    7.7610   -0.6010   -0.3277 Br  0  0  0  0  0  0  0  0  0  0  0  0
    5.0571   -0.4300   -1.3067 C   0  0  0  0  0  0  0  0  0  0  0  0
    3.7179   -0.2219   -1.1960 N   0  0  0  0  0  0  0  0  0  0  0  0
    1.7433   -2.0541   -1.6552 H   0  0  0  0  0  0  0  0  0  0  0  0
    2.0884   -2.4381    0.0853 H   0  0  0  0  0  0  0  0  0  0  0  0
    0.4781   -2.8129   -0.6211 H   0  0  0  0  0  0  0  0  0  0  0  0
   -0.6518    3.8181    0.9741 H   0  0  0  0  0  0  0  0  0  0  0  0
   -4.5867    2.0949   -0.6854 H   0  0  0  0  0  0  0  0  0  0  0  0
   -6.6579    0.8288   -1.1176 H   0  0  0  0  0  0  0  0  0  0  0  0
   -6.7410   -1.6118   -0.6954 H   0  0  0  0  0  0  0  0  0  0  0  0
   -4.7442   -2.7861    0.1839 H   0  0  0  0  0  0  0  0  0  0  0  0
   -2.6774   -1.5426    0.6502 H   0  0  0  0  0  0  0  0  0  0  0  0
    3.4855    0.4862    2.0937 H   0  0  0  0  0  0  0  0  0  0  0  0
    5.9290    0.1200    1.9288 H   0  0  0  0  0  0  0  0  0  0  0  0
    5.4807   -0.6886   -2.2679 H   0  0  0  0  0  0  0  0  0  0  0  0
  1  2  1  0
  2  3  2  0
  3  4  1  0
  4  5  2  0
  5  6  1  0
  6  7  2  0
  7  8  1  0
  8  9  1  0
  9 10  2  0
 10 11  1  0
 11 12  2  0
 12 13  1  0
 13 14  2  0
  5 15  1  0
 15 16  2  0
 15 17  1  0
 17 18  1  0
 18 19  2  0
 19 20  1  0
 20 21  2  0
 21 22  1  0
 21 23  1  0
 23 24  2  0
 17  2  1  0
 24 18  1  0
  8  4  1  0
 14  9  1  0
  1 25  1  0
  1 26  1  0
  1 27  1  0
  6 28  1  0
 10 29  1  0
 11 30  1  0
 12 31  1  0
 13 32  1  0
 14 33  1  0
 19 34  1  0
 20 35  1  0
 23 36  1  0
M  END
$$$$
