
     RDKit          3D

 62 66  0  0  0  0  0  0  0  0999 V2000
   -3.2359    4.9471    0.3786 C   0  0  0  0  0  0  0  0  0  0  0  0
   -2.7093    3.6561    0.8203 C   0  0  0  0  0  0  0  0  0  0  0  0
   -2.2759    2.5913    1.1818 C   0  0  0  0  0  0  0  0  0  0  0  0
   -1.7495    1.2941    1.6151 C   0  0  0  0  0  0  0  0  0  0  0  0
   -1.3709    0.4904    0.4503 N   0  0  0  0  0  0  0  0  0  0  0  0
   -2.0495   -0.5490   -0.1122 C   0  0  0  0  0  0  0  0  0  0  0  0
   -3.3510   -0.9869    0.3097 N   0  0  0  0  0  0  0  0  0  0  0  0
   -4.4645   -0.0340    0.4042 C   0  0  0  0  0  0  0  0  0  0  0  0
   -5.7000   -0.6089   -0.2933 C   0  0  0  0  0  0  0  0  0  0  0  0
   -6.0831   -2.0140    0.2226 C   0  0  0  0  0  0  0  0  0  0  0  0
   -4.9853   -2.6921    1.0720 C   0  0  0  0  0  0  0  0  0  0  0  0
   -5.2305   -4.1326    1.1534 N   0  0  0  0  0  0  0  0  0  0  0  0
   -3.5904   -2.4259    0.4803 C   0  0  0  0  0  0  0  0  0  0  0  0
   -1.3777   -1.1551   -1.1256 N   0  0  0  0  0  0  0  0  0  0  0  0
   -0.2444   -0.4355   -1.1988 C   0  0  0  0  0  0  0  0  0  0  0  0
    0.8218   -0.6106   -2.0644 C   0  0  0  0  0  0  0  0  0  0  0  0
    0.8157   -1.6365   -3.0130 O   0  0  0  0  0  0  0  0  0  0  0  0
    1.9070   -1.8665   -3.8960 C   0  0  0  0  0  0  0  0  0  0  0  0
    1.8764    0.2495   -1.9497 N   0  0  0  0  0  0  0  0  0  0  0  0
    1.9085    1.2382   -1.0397 N   0  0  0  0  0  0  0  0  0  0  0  0
    3.1075    2.0827   -0.9756 C   0  0  0  0  0  0  0  0  0  0  0  0
    4.0722    1.5496    0.0641 C   0  0  0  0  0  0  0  0  0  0  0  0
    4.0519    2.1376    1.3416 C   0  0  0  0  0  0  0  0  0  0  0  0
    4.8726    1.6643    2.3632 C   0  0  0  0  0  0  0  0  0  0  0  0
    5.7265    0.5888    2.1369 C   0  0  0  0  0  0  0  0  0  0  0  0
    5.7715   -0.0251    0.8785 C   0  0  0  0  0  0  0  0  0  0  0  0
    6.6335   -1.1125    0.6650 C   0  0  0  0  0  0  0  0  0  0  0  0
    6.6885   -1.7329   -0.5825 C   0  0  0  0  0  0  0  0  0  0  0  0
    5.8901   -1.2727   -1.6279 C   0  0  0  0  0  0  0  0  0  0  0  0
    5.0286   -0.1904   -1.4347 C   0  0  0  0  0  0  0  0  0  0  0  0
    4.9452    0.4506   -0.1781 C   0  0  0  0  0  0  0  0  0  0  0  0
    0.8583    1.4201   -0.1672 C   0  0  0  0  0  0  0  0  0  0  0  0
    0.8747    2.3461    0.6881 O   0  0  0  0  0  0  0  0  0  0  0  0
   -0.2313    0.5514   -0.2672 C   0  0  0  0  0  0  0  0  0  0  0  0
   -2.4982    5.4385   -0.2885 H   0  0  0  0  0  0  0  0  0  0  0  0
   -3.4233    5.5919    1.2617 H   0  0  0  0  0  0  0  0  0  0  0  0
   -4.1857    4.7896   -0.1727 H   0  0  0  0  0  0  0  0  0  0  0  0
   -2.5139    0.7683    2.2218 H   0  0  0  0  0  0  0  0  0  0  0  0
   -0.8712    1.4511    2.2745 H   0  0  0  0  0  0  0  0  0  0  0  0
   -4.1998    0.9292   -0.0831 H   0  0  0  0  0  0  0  0  0  0  0  0
   -4.6987    0.1641    1.4720 H   0  0  0  0  0  0  0  0  0  0  0  0
   -6.5559    0.0876   -0.1593 H   0  0  0  0  0  0  0  0  0  0  0  0
   -5.4876   -0.6681   -1.3837 H   0  0  0  0  0  0  0  0  0  0  0  0
   -6.3255   -2.6572   -0.6524 H   0  0  0  0  0  0  0  0  0  0  0  0
   -7.0072   -1.9382    0.8367 H   0  0  0  0  0  0  0  0  0  0  0  0
   -5.0156   -2.2617    2.0999 H   0  0  0  0  0  0  0  0  0  0  0  0
   -6.1596   -4.2815    1.6106 H   0  0  0  0  0  0  0  0  0  0  0  0
   -4.5218   -4.5513    1.7992 H   0  0  0  0  0  0  0  0  0  0  0  0
   -2.8208   -2.8443    1.1654 H   0  0  0  0  0  0  0  0  0  0  0  0
   -3.4979   -2.9338   -0.5048 H   0  0  0  0  0  0  0  0  0  0  0  0
    2.8258   -2.0930   -3.3140 H   0  0  0  0  0  0  0  0  0  0  0  0
    2.0773   -0.9715   -4.5313 H   0  0  0  0  0  0  0  0  0  0  0  0
    1.6720   -2.7319   -4.5488 H   0  0  0  0  0  0  0  0  0  0  0  0
    3.5939    2.1437   -1.9715 H   0  0  0  0  0  0  0  0  0  0  0  0
    2.8219    3.1331   -0.7453 H   0  0  0  0  0  0  0  0  0  0  0  0
    3.3927    2.9705    1.5526 H   0  0  0  0  0  0  0  0  0  0  0  0
    4.8422    2.1319    3.3390 H   0  0  0  0  0  0  0  0  0  0  0  0
    6.3525    0.2351    2.9478 H   0  0  0  0  0  0  0  0  0  0  0  0
    7.2646   -1.4831    1.4642 H   0  0  0  0  0  0  0  0  0  0  0  0
    7.3545   -2.5715   -0.7403 H   0  0  0  0  0  0  0  0  0  0  0  0
    5.9404   -1.7553   -2.5956 H   0  0  0  0  0  0  0  0  0  0  0  0
    4.4438    0.1308   -2.2820 H   0  0  0  0  0  0  0  0  0  0  0  0
  1  2  1  0
  2  3  3  0
  3  4  1  0
  4  5  1  0
  5  6  1  0
  6  7  1  0
  7  8  1  0
  8  9  1  0
  9 10  1  0
 10 11  1  0
 11 12  1  0
 11 13  1  0
  6 14  2  0
 14 15  1  0
 15 16  1  0
 16 17  1  0
 17 18  1  0
 16 19  2  0
 19 20  1  0
 20 21  1  0
 21 22  1  0
 22 23  2  0
 23 24  1  0
 24 25  2  0
 25 26  1  0
 26 27  2  0
 27 28  1  0
 28 29  2  0
 29 30  1  0
 30 31  2  0
 20 32  1  0
 32 33  2  0
 32 34  1  0
 34  5  1  0
 13  7  1  0
 34 15  2  0
 31 22  1  0
 31 26  1  0
  1 35  1  0
  1 36  1  0
  1 37  1  0
  4 38  1  0
  4 39  1  0
  8 40  1  0
  8 41  1  0
  9 42  1  0
  9 43  1  0
 10 44  1  0
 10 45  1  0
 11 46  1  0
 12 47  1  0
 12 48  1  0
 13 49  1  0
 13 50  1  0
 18 51  1  0
 18 52  1  0
 18 53  1  0
 21 54  1  0
 21 55  1  0
 23 56  1  0
 24 57  1  0
 25 58  1  0
 27 59  1  0
 28 60  1  0
 29 61  1  0
 30 62  1  0
M  END
$$$$
