
     RDKit          3D

 81 82  0  0  0  0  0  0  0  0999 V2000
    0.0712    2.8169   -4.3927 C   0  0  0  0  0  0  0  0  0  0  0  0
    0.4976    1.3531   -4.4639 C   0  0  0  0  0  0  0  0  0  0  0  0
    1.9567    1.2254   -4.9216 C   0  0  0  0  0  0  0  0  0  0  0  0
    2.4056   -0.2371   -5.0993 C   0  0  0  0  0  0  0  0  0  0  0  0
    2.6580   -0.9675   -3.7651 C   0  0  0  0  0  0  0  0  0  0  0  0
    1.4122   -1.3013   -3.1491 O   0  0  0  0  0  0  0  0  0  0  0  0
    1.2507   -1.7312   -1.8215 C   0  0  0  0  0  0  0  0  0  0  0  0
    2.3268   -1.8432   -0.9208 C   0  0  0  0  0  0  0  0  0  0  0  0
    2.1057   -2.2712    0.3910 C   0  0  0  0  0  0  0  0  0  0  0  0
    0.8105   -2.5893    0.8262 C   0  0  0  0  0  0  0  0  0  0  0  0
    0.5852   -3.0401    2.2437 C   0  0  0  0  0  0  0  0  0  0  0  0
    0.8629   -1.9403    3.1635 N   0  0  0  0  0  0  0  0  0  0  0  0
   -0.1458   -1.0181    3.5962 C   0  0  0  0  0  0  0  0  0  0  0  0
   -1.3677   -1.2856    3.4287 O   0  0  0  0  0  0  0  0  0  0  0  0
    0.2599    0.2446    4.3087 C   0  0  2  0  0  0  0  0  0  0  0  0
    0.2382    0.0438    5.8243 C   0  0  0  0  0  0  0  0  0  0  0  0
   -1.0687    0.6701    6.3018 C   0  0  0  0  0  0  0  0  0  0  0  0
   -1.4466    1.6911    5.2358 C   0  0  0  0  0  0  0  0  0  0  0  0
   -0.6870    1.3239    4.0515 N   0  0  0  0  0  0  0  0  0  0  0  0
   -0.6946    2.1233    2.8543 C   0  0  0  0  0  0  0  0  0  0  0  0
   -1.1205    3.3101    2.9106 O   0  0  0  0  0  0  0  0  0  0  0  0
   -0.1312    1.5849    1.5599 C   0  0  0  0  0  0  0  0  0  0  0  0
   -0.5668    2.3760    0.3007 C   0  0  0  0  0  0  0  0  0  0  0  0
    0.1339    1.8811   -0.8863 N   0  0  0  0  0  0  0  0  0  0  0  0
   -2.0945    2.3761    0.0516 C   0  0  0  0  0  0  0  0  0  0  0  0
   -2.6892    0.9996   -0.1411 C   0  0  0  0  0  0  0  0  0  0  0  0
   -3.1580    0.2744    0.9694 C   0  0  0  0  0  0  0  0  0  0  0  0
   -3.7335   -0.9876    0.7988 C   0  0  0  0  0  0  0  0  0  0  0  0
   -3.8475   -1.5371   -0.4794 C   0  0  0  0  0  0  0  0  0  0  0  0
   -3.4011   -0.8188   -1.5914 C   0  0  0  0  0  0  0  0  0  0  0  0
   -2.8142    0.4399   -1.4275 C   0  0  0  0  0  0  0  0  0  0  0  0
   -2.3913    1.1188   -2.5242 F   0  0  0  0  0  0  0  0  0  0  0  0
   -0.2620   -2.4705   -0.0693 C   0  0  0  0  0  0  0  0  0  0  0  0
   -0.0383   -2.0530   -1.3845 C   0  0  0  0  0  0  0  0  0  0  0  0
    3.4470   -2.2212   -4.0142 C   0  0  0  0  0  0  0  0  0  0  0  0
    2.9110   -3.2030   -4.5960 O   0  0  0  0  0  0  0  0  0  0  0  0
    4.7796   -2.2908   -3.6196 O   0  0  0  0  0  0  0  0  0  0  0  0
    0.7645    0.6837   -1.3819 O   0  0  0  0  0  0  0  0  0  0  0  0
    0.4666    0.1973   -0.2587 C   0  0  0  0  0  0  0  0  0  0  0  0
    1.4685   -0.0654    0.6702 O   0  0  0  0  0  0  0  0  0  0  0  0
   -0.9515   -0.1559    0.0531 C   0  0  0  0  0  0  0  0  0  0  0  0
   -1.2054   -1.4466   -0.3696 F   0  0  0  0  0  0  0  0  0  0  0  0
   -1.8119    0.7138   -0.5929 F   0  0  0  0  0  0  0  0  0  0  0  0
   -1.1682   -0.0728    1.4160 F   0  0  0  0  0  0  0  0  0  0  0  0
   -0.9710    2.8824   -4.0169 H   0  0  0  0  0  0  0  0  0  0  0  0
    0.1114    3.2817   -5.4009 H   0  0  0  0  0  0  0  0  0  0  0  0
    0.7320    3.3791   -3.6986 H   0  0  0  0  0  0  0  0  0  0  0  0
    0.3751    0.9095   -3.4572 H   0  0  0  0  0  0  0  0  0  0  0  0
   -0.1702    0.8163   -5.1728 H   0  0  0  0  0  0  0  0  0  0  0  0
    2.0635    1.7372   -5.9034 H   0  0  0  0  0  0  0  0  0  0  0  0
    2.6258    1.7419   -4.1979 H   0  0  0  0  0  0  0  0  0  0  0  0
    3.3574   -0.2213   -5.6781 H   0  0  0  0  0  0  0  0  0  0  0  0
    1.6577   -0.7951   -5.7066 H   0  0  0  0  0  0  0  0  0  0  0  0
    3.2407   -0.2938   -3.1007 H   0  0  0  0  0  0  0  0  0  0  0  0
    3.3380   -1.6061   -1.2189 H   0  0  0  0  0  0  0  0  0  0  0  0
    2.9477   -2.3554    1.0688 H   0  0  0  0  0  0  0  0  0  0  0  0
    1.2681   -3.8859    2.4735 H   0  0  0  0  0  0  0  0  0  0  0  0
   -0.4512   -3.4175    2.3883 H   0  0  0  0  0  0  0  0  0  0  0  0
    1.8634   -1.7210    3.3753 H   0  0  0  0  0  0  0  0  0  0  0  0
    1.2792    0.5546    3.9877 H   0  0  0  0  0  0  0  0  0  0  0  0
    1.0911    0.5954    6.2784 H   0  0  0  0  0  0  0  0  0  0  0  0
    0.3086   -1.0257    6.1253 H   0  0  0  0  0  0  0  0  0  0  0  0
   -0.9503    1.1464    7.2994 H   0  0  0  0  0  0  0  0  0  0  0  0
   -1.8536   -0.1160    6.3618 H   0  0  0  0  0  0  0  0  0  0  0  0
   -2.5377    1.6523    5.0244 H   0  0  0  0  0  0  0  0  0  0  0  0
   -1.1576    2.7124    5.5661 H   0  0  0  0  0  0  0  0  0  0  0  0
   -0.4256    0.5234    1.4375 H   0  0  0  0  0  0  0  0  0  0  0  0
    0.9764    1.6117    1.6368 H   0  0  0  0  0  0  0  0  0  0  0  0
   -0.2654    3.4371    0.4458 H   0  0  0  0  0  0  0  0  0  0  0  0
    1.1526    2.1004   -0.7943 H   0  0  0  0  0  0  0  0  0  0  0  0
    0.0449    0.8402   -0.9391 H   0  0  0  0  0  0  0  0  0  0  0  0
   -2.6161    2.8862    0.8890 H   0  0  0  0  0  0  0  0  0  0  0  0
   -2.3021    2.9990   -0.8457 H   0  0  0  0  0  0  0  0  0  0  0  0
   -3.0900    0.6909    1.9662 H   0  0  0  0  0  0  0  0  0  0  0  0
   -4.0913   -1.5390    1.6587 H   0  0  0  0  0  0  0  0  0  0  0  0
   -4.2966   -2.5128   -0.6100 H   0  0  0  0  0  0  0  0  0  0  0  0
   -3.5020   -1.2432   -2.5815 H   0  0  0  0  0  0  0  0  0  0  0  0
   -1.2681   -2.7096    0.2462 H   0  0  0  0  0  0  0  0  0  0  0  0
   -0.8688   -1.9775   -2.0715 H   0  0  0  0  0  0  0  0  0  0  0  0
    5.3296   -3.1247   -3.7894 H   0  0  0  0  0  0  0  0  0  0  0  0
    2.4373    0.1459    0.4639 H   0  0  0  0  0  0  0  0  0  0  0  0
  1  2  1  0
  2  3  1  0
  3  4  1  0
  4  5  1  0
  5  6  1  0
  6  7  1  0
  7  8  2  0
  8  9  1  0
  9 10  2  0
 10 11  1  0
 11 12  1  0
 12 13  1  0
 13 14  2  0
 13 15  1  0
 15 16  1  0
 16 17  1  0
 17 18  1  0
 18 19  1  0
 19 20  1  0
 20 21  2  0
 20 22  1  0
 22 23  1  0
 23 24  1  0
 23 25  1  0
 25 26  1  0
 26 27  2  0
 27 28  1  0
 28 29  2  0
 29 30  1  0
 30 31  2  0
 31 32  1  0
 10 33  1  0
 33 34  2  0
  5 35  1  0
 35 36  2  0
 35 37  1  0
 38 39  2  0
 39 40  1  0
 39 41  1  0
 41 42  1  0
 41 43  1  0
 41 44  1  0
 34  7  1  0
 19 15  1  0
 31 26  1  0
  1 45  1  0
  1 46  1  0
  1 47  1  0
  2 48  1  0
  2 49  1  0
  3 50  1  0
  3 51  1  0
  4 52  1  0
  4 53  1  0
  5 54  1  0
  8 55  1  0
  9 56  1  0
 11 57  1  0
 11 58  1  0
 12 59  1  0
 15 60  1  6
 16 61  1  0
 16 62  1  0
 17 63  1  0
 17 64  1  0
 18 65  1  0
 18 66  1  0
 22 67  1  0
 22 68  1  0
 23 69  1  0
 24 70  1  0
 24 71  1  0
 25 72  1  0
 25 73  1  0
 27 74  1  0
 28 75  1  0
 29 76  1  0
 30 77  1  0
 33 78  1  0
 34 79  1  0
 37 80  1  0
 40 81  1  0
M  END
$$$$
