
     RDKit          3D

 46 48  0  0  0  0  0  0  0  0999 V2000
    6.6029    0.5104    3.0816 C   0  0  0  0  0  0  0  0  0  0  0  0
    5.9275    1.3068    2.1137 O   0  0  0  0  0  0  0  0  0  0  0  0
    4.7222    0.9460    1.4934 C   0  0  0  0  0  0  0  0  0  0  0  0
    4.1662    1.8262    0.5573 C   0  0  0  0  0  0  0  0  0  0  0  0
    2.9675    1.5118   -0.0890 C   0  0  0  0  0  0  0  0  0  0  0  0
    2.3124    0.3038    0.1883 C   0  0  0  0  0  0  0  0  0  0  0  0
    1.0413   -0.0303   -0.4871 C   0  0  0  0  0  0  0  0  0  0  0  0
   -0.1360    0.0013    0.2701 C   0  0  0  0  0  0  0  0  0  0  0  0
   -1.3637   -0.2962   -0.3317 C   0  0  0  0  0  0  0  0  0  0  0  0
   -2.6244   -0.2616    0.4426 C   0  0  0  0  0  0  0  0  0  0  0  0
   -2.5983    0.0605    1.6615 O   0  0  0  0  0  0  0  0  0  0  0  0
   -3.8685   -0.6248   -0.1811 N   0  0  0  0  0  0  0  0  0  0  0  0
   -5.1630   -0.3828    0.3897 C   0  0  0  0  0  0  0  0  0  0  0  0
   -5.4722    0.5022    1.4067 C   0  0  0  0  0  0  0  0  0  0  0  0
   -6.8403    0.3785    1.5201 C   0  0  0  0  0  0  0  0  0  0  0  0
   -7.7175    1.1336    2.4602 C   0  0  0  0  0  0  0  0  0  0  0  0
   -7.2709   -0.4893    0.6338 O   0  0  0  0  0  0  0  0  0  0  0  0
   -6.2861   -0.9674   -0.0700 N   0  0  0  0  0  0  0  0  0  0  0  0
   -1.3948   -0.6121   -1.6521 N   0  0  0  0  0  0  0  0  0  0  0  0
   -0.2796   -0.6617   -2.4290 C   0  0  0  0  0  0  0  0  0  0  0  0
   -0.4469   -1.0467   -3.8709 C   0  0  0  0  0  0  0  0  0  0  0  0
    0.9887   -0.3890   -1.8572 C   0  0  0  0  0  0  0  0  0  0  0  0
    2.2571   -0.4594   -2.6880 C   0  0  0  0  0  0  0  0  0  0  0  0
    2.5907    0.8605   -3.2136 N   0  0  0  0  0  0  0  0  0  0  0  0
    2.8577   -0.5762    1.1336 C   0  0  0  0  0  0  0  0  0  0  0  0
    4.0566   -0.2617    1.7804 C   0  0  0  0  0  0  0  0  0  0  0  0
    7.5266    1.0346    3.4017 H   0  0  0  0  0  0  0  0  0  0  0  0
    6.8845   -0.4692    2.6407 H   0  0  0  0  0  0  0  0  0  0  0  0
    5.9545    0.3578    3.9702 H   0  0  0  0  0  0  0  0  0  0  0  0
    4.6646    2.7606    0.3324 H   0  0  0  0  0  0  0  0  0  0  0  0
    2.5466    2.2127   -0.7989 H   0  0  0  0  0  0  0  0  0  0  0  0
   -0.0906    0.2656    1.3204 H   0  0  0  0  0  0  0  0  0  0  0  0
   -3.8423   -1.1339   -1.0928 H   0  0  0  0  0  0  0  0  0  0  0  0
   -4.8220    1.1639    1.9619 H   0  0  0  0  0  0  0  0  0  0  0  0
   -7.8652    2.1659    2.0807 H   0  0  0  0  0  0  0  0  0  0  0  0
   -7.2478    1.1750    3.4654 H   0  0  0  0  0  0  0  0  0  0  0  0
   -8.7036    0.6308    2.5433 H   0  0  0  0  0  0  0  0  0  0  0  0
   -1.5243   -1.0915   -4.1382 H   0  0  0  0  0  0  0  0  0  0  0  0
   -0.0042   -2.0492   -4.0473 H   0  0  0  0  0  0  0  0  0  0  0  0
    0.0369   -0.2992   -4.5321 H   0  0  0  0  0  0  0  0  0  0  0  0
    2.1614   -1.1862   -3.5225 H   0  0  0  0  0  0  0  0  0  0  0  0
    3.0998   -0.8307   -2.0657 H   0  0  0  0  0  0  0  0  0  0  0  0
    3.5049    0.7827   -3.7151 H   0  0  0  0  0  0  0  0  0  0  0  0
    1.8779    1.1222   -3.9319 H   0  0  0  0  0  0  0  0  0  0  0  0
    2.3572   -1.5089    1.3639 H   0  0  0  0  0  0  0  0  0  0  0  0
    4.4564   -0.9624    2.5004 H   0  0  0  0  0  0  0  0  0  0  0  0
  1  2  1  0
  2  3  1  0
  3  4  2  0
  4  5  1  0
  5  6  2  0
  6  7  1  0
  7  8  2  0
  8  9  1  0
  9 10  1  0
 10 11  2  0
 10 12  1  0
 12 13  1  0
 13 14  1  0
 14 15  2  0
 15 16  1  0
 15 17  1  0
 17 18  1  0
  9 19  2  0
 19 20  1  0
 20 21  1  0
 20 22  2  0
 22 23  1  0
 23 24  1  0
  6 25  1  0
 25 26  2  0
 26  3  1  0
 22  7  1  0
 18 13  2  0
  1 27  1  0
  1 28  1  0
  1 29  1  0
  4 30  1  0
  5 31  1  0
  8 32  1  0
 12 33  1  0
 14 34  1  0
 16 35  1  0
 16 36  1  0
 16 37  1  0
 21 38  1  0
 21 39  1  0
 21 40  1  0
 23 41  1  0
 23 42  1  0
 24 43  1  0
 24 44  1  0
 25 45  1  0
 26 46  1  0
M  END
$$$$
