
     RDKit          3D

 59 62  0  0  0  0  0  0  0  0999 V2000
    3.5938   -0.7949    0.1854 N   0  0  0  0  0  0  0  0  0  0  0  0
    3.0666    0.1253   -0.8272 C   0  0  1  0  0  0  0  0  0  0  0  0
    2.7399   -0.6415   -2.1315 C   0  0  0  0  0  0  0  0  0  0  0  0
    1.5712   -1.5821   -1.9807 C   0  0  0  0  0  0  0  0  0  0  0  0
    1.7033   -2.6162   -1.2736 O   0  0  0  0  0  0  0  0  0  0  0  0
    0.3124   -1.2761   -2.6126 N   0  0  0  0  0  0  0  0  0  0  0  0
   -0.9912   -1.8731   -2.2486 C   0  0  0  0  0  0  0  0  0  0  0  0
   -1.2105   -1.6552   -0.7583 C   0  0  0  0  0  0  0  0  0  0  0  0
   -1.4224   -0.4270   -0.2344 N   0  0  0  0  0  0  0  0  0  0  0  0
   -1.4001   -0.4111    1.1280 C   0  0  0  0  0  0  0  0  0  0  0  0
   -1.4723    0.8671    1.8825 C   0  0  0  0  0  0  0  0  0  0  0  0
   -1.6150    0.8903    3.2842 C   0  0  0  0  0  0  0  0  0  0  0  0
   -1.5878    2.1029    3.9799 C   0  0  0  0  0  0  0  0  0  0  0  0
   -1.4225    3.3062    3.2895 C   0  0  0  0  0  0  0  0  0  0  0  0
   -1.3590    4.8226    4.1681 Cl  0  0  0  0  0  0  0  0  0  0  0  0
   -1.3014    3.2989    1.8982 C   0  0  0  0  0  0  0  0  0  0  0  0
   -1.3321    2.0903    1.1977 C   0  0  0  0  0  0  0  0  0  0  0  0
   -1.1539   -1.6560    1.7128 C   0  0  0  0  0  0  0  0  0  0  0  0
   -0.9402   -2.7710    0.4757 S   0  0  0  0  0  0  0  0  0  0  0  0
   -0.9892   -3.3805   -2.6613 C   0  0  0  0  0  0  0  0  0  0  0  0
   -2.3050   -4.1337   -2.4062 C   0  0  0  0  0  0  0  0  0  0  0  0
   -3.6699   -3.3095   -3.1857 S   0  0  0  0  0  0  0  0  0  0  0  0
   -3.6006   -3.4909   -4.6761 O   0  0  0  0  0  0  0  0  0  0  0  0
   -4.9694   -3.8584   -2.6686 O   0  0  0  0  0  0  0  0  0  0  0  0
   -3.5250   -1.5914   -2.7715 C   0  0  0  0  0  0  0  0  0  0  0  0
   -2.0968   -1.1124   -3.0479 C   0  0  0  0  0  0  0  0  0  0  0  0
    1.8190    0.8594   -0.2914 C   0  0  0  0  0  0  0  0  0  0  0  0
    2.1420    1.8591    0.7909 C   0  0  0  0  0  0  0  0  0  0  0  0
    2.5388    3.1606    0.4423 C   0  0  0  0  0  0  0  0  0  0  0  0
    2.7889    4.1128    1.4353 C   0  0  0  0  0  0  0  0  0  0  0  0
    3.1594    5.3700    1.0875 F   0  0  0  0  0  0  0  0  0  0  0  0
    2.6502    3.7713    2.7839 C   0  0  0  0  0  0  0  0  0  0  0  0
    2.8840    4.6963    3.7474 F   0  0  0  0  0  0  0  0  0  0  0  0
    2.2715    2.4746    3.1407 C   0  0  0  0  0  0  0  0  0  0  0  0
    2.0230    1.5173    2.1524 C   0  0  0  0  0  0  0  0  0  0  0  0
    1.6552    0.2649    2.5243 F   0  0  0  0  0  0  0  0  0  0  0  0
    4.4284   -1.2845   -0.2119 H   0  0  0  0  0  0  0  0  0  0  0  0
    3.9598   -0.2321    0.9867 H   0  0  0  0  0  0  0  0  0  0  0  0
    3.8486    0.8804   -1.0727 H   0  0  0  0  0  0  0  0  0  0  0  0
    3.6294   -1.2212   -2.4598 H   0  0  0  0  0  0  0  0  0  0  0  0
    2.5303    0.0947   -2.9371 H   0  0  0  0  0  0  0  0  0  0  0  0
    0.3249   -0.4999   -3.3135 H   0  0  0  0  0  0  0  0  0  0  0  0
   -1.7439   -0.0215    3.8499 H   0  0  0  0  0  0  0  0  0  0  0  0
   -1.6877    2.1047    5.0579 H   0  0  0  0  0  0  0  0  0  0  0  0
   -1.1703    4.2282    1.3586 H   0  0  0  0  0  0  0  0  0  0  0  0
   -1.2115    2.1134    0.1220 H   0  0  0  0  0  0  0  0  0  0  0  0
   -1.0383   -1.8726    2.7650 H   0  0  0  0  0  0  0  0  0  0  0  0
   -0.1863   -3.9289   -2.1290 H   0  0  0  0  0  0  0  0  0  0  0  0
   -0.7501   -3.4537   -3.7452 H   0  0  0  0  0  0  0  0  0  0  0  0
   -2.2261   -5.1636   -2.8140 H   0  0  0  0  0  0  0  0  0  0  0  0
   -2.5096   -4.2138   -1.3204 H   0  0  0  0  0  0  0  0  0  0  0  0
   -4.2408   -1.0076   -3.3879 H   0  0  0  0  0  0  0  0  0  0  0  0
   -3.7842   -1.4460   -1.7017 H   0  0  0  0  0  0  0  0  0  0  0  0
   -1.8965   -1.2093   -4.1383 H   0  0  0  0  0  0  0  0  0  0  0  0
   -2.0469   -0.0256   -2.8154 H   0  0  0  0  0  0  0  0  0  0  0  0
    1.3065    1.3877   -1.1257 H   0  0  0  0  0  0  0  0  0  0  0  0
    1.1037    0.1113    0.0990 H   0  0  0  0  0  0  0  0  0  0  0  0
    2.6399    3.4399   -0.5993 H   0  0  0  0  0  0  0  0  0  0  0  0
    2.1658    2.2115    4.1853 H   0  0  0  0  0  0  0  0  0  0  0  0
  1  2  1  0
  2  3  1  0
  3  4  1  0
  4  5  2  0
  4  6  1  0
  6  7  1  0
  7  8  1  0
  8  9  2  0
  9 10  1  0
 10 11  1  0
 11 12  2  0
 12 13  1  0
 13 14  2  0
 14 15  1  0
 14 16  1  0
 16 17  2  0
 10 18  2  0
 18 19  1  0
  7 20  1  0
 20 21  1  0
 21 22  1  0
 22 23  2  0
 22 24  2  0
 22 25  1  0
 25 26  1  0
  2 27  1  0
 27 28  1  0
 28 29  2  0
 29 30  1  0
 30 31  1  0
 30 32  2  0
 32 33  1  0
 32 34  1  0
 34 35  2  0
 35 36  1  0
 26  7  1  0
 35 28  1  0
 19  8  1  0
 17 11  1  0
  1 37  1  0
  1 38  1  0
  2 39  1  6
  3 40  1  0
  3 41  1  0
  6 42  1  0
 12 43  1  0
 13 44  1  0
 16 45  1  0
 17 46  1  0
 18 47  1  0
 20 48  1  0
 20 49  1  0
 21 50  1  0
 21 51  1  0
 25 52  1  0
 25 53  1  0
 26 54  1  0
 26 55  1  0
 27 56  1  0
 27 57  1  0
 29 58  1  0
 34 59  1  0
M  END
$$$$
