
     RDKit          3D

 51 53  0  0  0  0  0  0  0  0999 V2000
    6.5082    2.6436    1.1400 C   0  0  0  0  0  0  0  0  0  0  0  0
    6.1353    1.5970   -0.2481 S   0  0  0  0  0  0  0  0  0  0  0  0
    6.2582    2.3872   -1.5207 O   0  0  0  0  0  0  0  0  0  0  0  0
    7.1106    0.4543   -0.2937 O   0  0  0  0  0  0  0  0  0  0  0  0
    4.4969    0.9755   -0.0872 C   0  0  0  0  0  0  0  0  0  0  0  0
    4.2624   -0.2274    0.6252 C   0  0  0  0  0  0  0  0  0  0  0  0
    2.9562   -0.7288    0.7736 C   0  0  0  0  0  0  0  0  0  0  0  0
    1.9162    0.0045    0.2049 C   0  0  0  0  0  0  0  0  0  0  0  0
    2.1352    1.1634   -0.4832 C   0  0  0  0  0  0  0  0  0  0  0  0
    3.4147    1.6871   -0.6483 C   0  0  0  0  0  0  0  0  0  0  0  0
    0.9755    1.6664   -0.9516 N   0  0  0  0  0  0  0  0  0  0  0  0
    0.0632    0.7542   -0.5250 C   0  0  0  0  0  0  0  0  0  0  0  0
    0.6008   -0.2522    0.2041 N   0  0  0  0  0  0  0  0  0  0  0  0
   -0.1072   -1.4269    0.7118 C   0  0  0  0  0  0  0  0  0  0  0  0
   -1.6253   -1.1624    0.7768 C   0  0  2  0  0  0  0  0  0  0  0  0
   -2.3208   -2.4292    1.0248 N   0  0  0  0  0  0  0  0  0  0  0  0
   -2.1167   -0.4744   -0.5343 C   0  0  1  0  0  0  0  0  0  0  0  0
   -3.6274   -0.2912   -0.5634 C   0  0  0  0  0  0  0  0  0  0  0  0
   -4.2792    0.4475    0.4447 C   0  0  0  0  0  0  0  0  0  0  0  0
   -5.6665    0.6163    0.4187 C   0  0  0  0  0  0  0  0  0  0  0  0
   -6.2787    1.3279    1.3974 F   0  0  0  0  0  0  0  0  0  0  0  0
   -6.4209    0.0538   -0.6134 C   0  0  0  0  0  0  0  0  0  0  0  0
   -7.7668    0.2172   -0.6394 F   0  0  0  0  0  0  0  0  0  0  0  0
   -5.7883   -0.6770   -1.6212 C   0  0  0  0  0  0  0  0  0  0  0  0
   -4.4006   -0.8507   -1.6024 C   0  0  0  0  0  0  0  0  0  0  0  0
   -3.8185   -1.5653   -2.5988 F   0  0  0  0  0  0  0  0  0  0  0  0
   -1.4112    0.8845   -0.7476 C   0  0  0  0  0  0  0  0  0  0  0  0
    0.7704    0.8210   -1.3004 O   0  0  0  0  0  0  0  0  0  0  0  0
    0.4633    0.1004   -0.3132 C   0  0  0  0  0  0  0  0  0  0  0  0
    1.4458   -0.6412    0.3361 O   0  0  0  0  0  0  0  0  0  0  0  0
   -0.9416    0.0886    0.1958 C   0  0  0  0  0  0  0  0  0  0  0  0
   -1.1777   -1.0748    0.9052 F   0  0  0  0  0  0  0  0  0  0  0  0
   -1.8287    0.1578   -0.8632 F   0  0  0  0  0  0  0  0  0  0  0  0
   -1.1374    1.1754    1.0266 F   0  0  0  0  0  0  0  0  0  0  0  0
    7.5407    3.0377    1.0419 H   0  0  0  0  0  0  0  0  0  0  0  0
    6.4245    2.0581    2.0788 H   0  0  0  0  0  0  0  0  0  0  0  0
    5.7915    3.4901    1.1692 H   0  0  0  0  0  0  0  0  0  0  0  0
    5.0891   -0.7705    1.0647 H   0  0  0  0  0  0  0  0  0  0  0  0
    2.7711   -1.6479    1.3138 H   0  0  0  0  0  0  0  0  0  0  0  0
    3.5665    2.6107   -1.1921 H   0  0  0  0  0  0  0  0  0  0  0  0
    0.0992   -2.2852    0.0358 H   0  0  0  0  0  0  0  0  0  0  0  0
    0.2665   -1.6811    1.7273 H   0  0  0  0  0  0  0  0  0  0  0  0
   -1.8086   -0.4818    1.6384 H   0  0  0  0  0  0  0  0  0  0  0  0
   -3.3106   -2.2300    1.2965 H   0  0  0  0  0  0  0  0  0  0  0  0
   -2.3408   -2.9955    0.1452 H   0  0  0  0  0  0  0  0  0  0  0  0
   -1.8084   -1.1305   -1.3790 H   0  0  0  0  0  0  0  0  0  0  0  0
   -3.7149    0.8932    1.2534 H   0  0  0  0  0  0  0  0  0  0  0  0
   -6.3752   -1.1106   -2.4209 H   0  0  0  0  0  0  0  0  0  0  0  0
   -1.7966    1.6442   -0.0350 H   0  0  0  0  0  0  0  0  0  0  0  0
   -1.5988    1.2454   -1.7820 H   0  0  0  0  0  0  0  0  0  0  0  0
    2.4059   -0.6272    0.0131 H   0  0  0  0  0  0  0  0  0  0  0  0
  1  2  1  0
  2  3  2  0
  2  4  2  0
  2  5  1  0
  5  6  2  0
  6  7  1  0
  7  8  2  0
  8  9  1  0
  9 10  2  0
  9 11  1  0
 11 12  2  0
 12 13  1  0
 13 14  1  0
 14 15  1  0
 15 16  1  0
 15 17  1  0
 17 18  1  0
 18 19  2  0
 19 20  1  0
 20 21  1  0
 20 22  2  0
 22 23  1  0
 22 24  1  0
 24 25  2  0
 25 26  1  0
 17 27  1  0
 28 29  2  0
 29 30  1  0
 29 31  1  0
 31 32  1  0
 31 33  1  0
 31 34  1  0
 10  5  1  0
 27 12  1  0
 13  8  1  0
 25 18  1  0
  1 35  1  0
  1 36  1  0
  1 37  1  0
  6 38  1  0
  7 39  1  0
 10 40  1  0
 14 41  1  0
 14 42  1  0
 15 43  1  1
 16 44  1  0
 16 45  1  0
 17 46  1  6
 19 47  1  0
 24 48  1  0
 27 49  1  0
 27 50  1  0
 30 51  1  0
M  END
$$$$
