
     RDKit          3D

 64 69  0  0  0  0  0  0  0  0999 V2000
   -0.5851    3.1548    2.6357 C   0  0  0  0  0  0  0  0  0  0  0  0
   -1.1604    2.7576    1.3507 C   0  0  0  0  0  0  0  0  0  0  0  0
   -1.6363    2.4287    0.2933 C   0  0  0  0  0  0  0  0  0  0  0  0
   -2.2183    2.0233   -0.9899 C   0  0  0  0  0  0  0  0  0  0  0  0
   -2.0510    0.5813   -1.1856 N   0  0  0  0  0  0  0  0  0  0  0  0
   -2.9737   -0.4045   -1.0042 C   0  0  0  0  0  0  0  0  0  0  0  0
   -4.2998   -0.1841   -0.4950 N   0  0  0  0  0  0  0  0  0  0  0  0
   -5.4325   -0.8839   -1.1047 C   0  0  0  0  0  0  0  0  0  0  0  0
   -5.9691   -1.9799   -0.1666 C   0  0  0  0  0  0  0  0  0  0  0  0
   -5.5778   -1.7661    1.3092 C   0  0  0  0  0  0  0  0  0  0  0  0
   -5.4873   -0.2756    1.7039 C   0  0  0  0  0  0  0  0  0  0  0  0
   -6.8044    0.3698    1.7016 N   0  0  0  0  0  0  0  0  0  0  0  0
   -4.4944    0.4916    0.7969 C   0  0  0  0  0  0  0  0  0  0  0  0
   -2.5205   -1.6440   -1.3284 N   0  0  0  0  0  0  0  0  0  0  0  0
   -1.2546   -1.4020   -1.7105 C   0  0  0  0  0  0  0  0  0  0  0  0
   -0.3041   -2.3159   -2.1303 C   0  0  0  0  0  0  0  0  0  0  0  0
    0.9347   -1.8403   -2.4458 N   0  0  0  0  0  0  0  0  0  0  0  0
    1.2483   -0.5348   -2.3695 N   0  0  0  0  0  0  0  0  0  0  0  0
    2.6244   -0.1317   -2.6857 C   0  0  0  0  0  0  0  0  0  0  0  0
    3.4539   -0.0504   -1.4267 C   0  0  0  0  0  0  0  0  0  0  0  0
    3.1527    0.9047   -0.5974 N   0  0  0  0  0  0  0  0  0  0  0  0
    3.7557    1.2695    0.6469 C   0  0  0  0  0  0  0  0  0  0  0  0
    2.9528    1.9297    1.5872 C   0  0  0  0  0  0  0  0  0  0  0  0
    3.5091    2.4574    2.7540 C   0  0  0  0  0  0  0  0  0  0  0  0
    4.8828    2.3581    2.9758 C   0  0  0  0  0  0  0  0  0  0  0  0
    5.6960    1.7229    2.0346 C   0  0  0  0  0  0  0  0  0  0  0  0
    5.1407    1.1640    0.8755 C   0  0  0  0  0  0  0  0  0  0  0  0
    5.9981    0.5305   -0.0207 O   0  0  0  0  0  0  0  0  0  0  0  0
    5.7415   -0.7302   -0.5552 C   0  0  0  0  0  0  0  0  0  0  0  0
    6.7682   -1.6808   -0.4807 C   0  0  0  0  0  0  0  0  0  0  0  0
    6.5650   -2.9839   -0.9320 C   0  0  0  0  0  0  0  0  0  0  0  0
    5.3332   -3.3466   -1.4703 C   0  0  0  0  0  0  0  0  0  0  0  0
    4.3140   -2.3994   -1.5840 C   0  0  0  0  0  0  0  0  0  0  0  0
    4.5058   -1.0705   -1.1498 C   0  0  0  0  0  0  0  0  0  0  0  0
    0.3105    0.3878   -1.9583 C   0  0  0  0  0  0  0  0  0  0  0  0
    0.5941    1.6138   -1.8765 O   0  0  0  0  0  0  0  0  0  0  0  0
   -0.9623   -0.0800   -1.6257 C   0  0  0  0  0  0  0  0  0  0  0  0
   -0.1614    2.2634    3.1426 H   0  0  0  0  0  0  0  0  0  0  0  0
    0.2189    3.9004    2.4667 H   0  0  0  0  0  0  0  0  0  0  0  0
   -1.3759    3.6012    3.2729 H   0  0  0  0  0  0  0  0  0  0  0  0
   -3.2923    2.2976   -1.0118 H   0  0  0  0  0  0  0  0  0  0  0  0
   -1.7283    2.5821   -1.8134 H   0  0  0  0  0  0  0  0  0  0  0  0
   -5.1471   -1.3291   -2.0835 H   0  0  0  0  0  0  0  0  0  0  0  0
   -6.2350   -0.1451   -1.3154 H   0  0  0  0  0  0  0  0  0  0  0  0
   -7.0767   -2.0196   -0.2537 H   0  0  0  0  0  0  0  0  0  0  0  0
   -5.5798   -2.9682   -0.4954 H   0  0  0  0  0  0  0  0  0  0  0  0
   -4.5825   -2.2323    1.4830 H   0  0  0  0  0  0  0  0  0  0  0  0
   -6.3029   -2.2924    1.9671 H   0  0  0  0  0  0  0  0  0  0  0  0
   -5.0979   -0.2292    2.7460 H   0  0  0  0  0  0  0  0  0  0  0  0
   -7.2467    0.2885    0.7592 H   0  0  0  0  0  0  0  0  0  0  0  0
   -7.4242   -0.1291    2.3807 H   0  0  0  0  0  0  0  0  0  0  0  0
   -3.5213    0.5591    1.3316 H   0  0  0  0  0  0  0  0  0  0  0  0
   -4.8494    1.5299    0.6233 H   0  0  0  0  0  0  0  0  0  0  0  0
   -0.5256   -3.3725   -2.1982 H   0  0  0  0  0  0  0  0  0  0  0  0
    2.6290    0.8589   -3.1913 H   0  0  0  0  0  0  0  0  0  0  0  0
    3.0715   -0.8377   -3.4185 H   0  0  0  0  0  0  0  0  0  0  0  0
    1.8926    2.0459    1.4030 H   0  0  0  0  0  0  0  0  0  0  0  0
    2.8779    2.9598    3.4758 H   0  0  0  0  0  0  0  0  0  0  0  0
    5.3183    2.7773    3.8735 H   0  0  0  0  0  0  0  0  0  0  0  0
    6.7617    1.6511    2.2118 H   0  0  0  0  0  0  0  0  0  0  0  0
    7.7214   -1.4122   -0.0429 H   0  0  0  0  0  0  0  0  0  0  0  0
    7.3593   -3.7151   -0.8542 H   0  0  0  0  0  0  0  0  0  0  0  0
    5.1705   -4.3606   -1.8122 H   0  0  0  0  0  0  0  0  0  0  0  0
    3.3762   -2.7132   -2.0187 H   0  0  0  0  0  0  0  0  0  0  0  0
  1  2  1  0
  2  3  3  0
  3  4  1  0
  4  5  1  0
  5  6  1  0
  6  7  1  0
  7  8  1  0
  8  9  1  0
  9 10  1  0
 10 11  1  0
 11 12  1  0
 11 13  1  0
  6 14  2  0
 14 15  1  0
 15 16  1  0
 16 17  2  0
 17 18  1  0
 18 19  1  0
 19 20  1  0
 20 21  2  0
 21 22  1  0
 22 23  2  0
 23 24  1  0
 24 25  2  0
 25 26  1  0
 26 27  2  0
 27 28  1  0
 28 29  1  0
 29 30  2  0
 30 31  1  0
 31 32  2  0
 32 33  1  0
 33 34  2  0
 18 35  1  0
 35 36  2  0
 35 37  1  0
 37  5  1  0
 13  7  1  0
 37 15  2  0
 34 20  1  0
 27 22  1  0
 34 29  1  0
  1 38  1  0
  1 39  1  0
  1 40  1  0
  4 41  1  0
  4 42  1  0
  8 43  1  0
  8 44  1  0
  9 45  1  0
  9 46  1  0
 10 47  1  0
 10 48  1  0
 11 49  1  0
 12 50  1  0
 12 51  1  0
 13 52  1  0
 13 53  1  0
 16 54  1  0
 19 55  1  0
 19 56  1  0
 23 57  1  0
 24 58  1  0
 25 59  1  0
 26 60  1  0
 30 61  1  0
 31 62  1  0
 32 63  1  0
 33 64  1  0
M  END
$$$$
