
     RDKit          3D

 40 42  0  0  0  0  0  0  0  0999 V2000
   -4.9945    1.2742   -0.8741 C   0  0  0  0  0  0  0  0  0  0  0  0
   -3.7626    1.2775   -0.0185 C   0  0  0  0  0  0  0  0  0  0  0  0
   -3.7413    1.9934    1.1880 C   0  0  0  0  0  0  0  0  0  0  0  0
   -2.6009    1.9772    1.9951 C   0  0  0  0  0  0  0  0  0  0  0  0
   -1.4831    1.2301    1.6159 C   0  0  0  0  0  0  0  0  0  0  0  0
   -1.5054    0.4761    0.4330 C   0  0  0  0  0  0  0  0  0  0  0  0
   -0.3153   -0.3062    0.0391 C   0  0  0  0  0  0  0  0  0  0  0  0
    0.8612    0.3613   -0.0819 N   0  0  0  0  0  0  0  0  0  0  0  0
    2.0038   -0.2582   -0.4695 C   0  0  0  0  0  0  0  0  0  0  0  0
    3.2704    0.5064   -0.5820 C   0  0  0  0  0  0  0  0  0  0  0  0
    4.4563   -0.1272   -1.0028 C   0  0  0  0  0  0  0  0  0  0  0  0
    5.6484    0.5963   -1.1070 C   0  0  0  0  0  0  0  0  0  0  0  0
    5.6729    1.9566   -0.7933 C   0  0  0  0  0  0  0  0  0  0  0  0
    4.5051    2.5971   -0.3744 C   0  0  0  0  0  0  0  0  0  0  0  0
    3.3098    1.8793   -0.2683 C   0  0  0  0  0  0  0  0  0  0  0  0
    1.9685   -1.5789   -0.7776 N   0  0  0  0  0  0  0  0  0  0  0  0
    0.8307   -2.3139   -0.6775 C   0  0  0  0  0  0  0  0  0  0  0  0
    0.8778   -3.6847   -1.0892 N   0  0  0  0  0  0  0  0  0  0  0  0
   -0.3571   -1.7050   -0.2001 C   0  0  0  0  0  0  0  0  0  0  0  0
   -1.6082   -2.5198    0.0968 C   0  0  0  0  0  0  0  0  0  0  0  0
   -2.1319   -2.2024    1.4232 N   0  0  0  0  0  0  0  0  0  0  0  0
   -2.6442    0.5140   -0.3886 C   0  0  0  0  0  0  0  0  0  0  0  0
   -4.7253    1.1685   -1.9467 H   0  0  0  0  0  0  0  0  0  0  0  0
   -5.5592    2.2233   -0.7543 H   0  0  0  0  0  0  0  0  0  0  0  0
   -5.6461    0.4254   -0.5789 H   0  0  0  0  0  0  0  0  0  0  0  0
   -4.6037    2.5695    1.4998 H   0  0  0  0  0  0  0  0  0  0  0  0
   -2.5846    2.5424    2.9181 H   0  0  0  0  0  0  0  0  0  0  0  0
   -0.6067    1.2250    2.2525 H   0  0  0  0  0  0  0  0  0  0  0  0
    4.4655   -1.1808   -1.2519 H   0  0  0  0  0  0  0  0  0  0  0  0
    6.5545    0.1009   -1.4313 H   0  0  0  0  0  0  0  0  0  0  0  0
    6.5969    2.5144   -0.8747 H   0  0  0  0  0  0  0  0  0  0  0  0
    4.5255    3.6516   -0.1312 H   0  0  0  0  0  0  0  0  0  0  0  0
    2.4192    2.4005    0.0596 H   0  0  0  0  0  0  0  0  0  0  0  0
    0.0285   -4.2073   -1.3929 H   0  0  0  0  0  0  0  0  0  0  0  0
    1.8023   -4.1309   -1.2808 H   0  0  0  0  0  0  0  0  0  0  0  0
   -2.3783   -2.3011   -0.6717 H   0  0  0  0  0  0  0  0  0  0  0  0
   -1.4177   -3.6106    0.0655 H   0  0  0  0  0  0  0  0  0  0  0  0
   -3.0207   -2.7373    1.5547 H   0  0  0  0  0  0  0  0  0  0  0  0
   -1.4553   -2.5604    2.1364 H   0  0  0  0  0  0  0  0  0  0  0  0
   -2.6551   -0.0361   -1.3217 H   0  0  0  0  0  0  0  0  0  0  0  0
  1  2  1  0
  2  3  2  0
  3  4  1  0
  4  5  2  0
  5  6  1  0
  6  7  1  0
  7  8  2  0
  8  9  1  0
  9 10  1  0
 10 11  2  0
 11 12  1  0
 12 13  2  0
 13 14  1  0
 14 15  2  0
  9 16  2  0
 16 17  1  0
 17 18  1  0
 17 19  2  0
 19 20  1  0
 20 21  1  0
  6 22  2  0
 22  2  1  0
 19  7  1  0
 15 10  1  0
  1 23  1  0
  1 24  1  0
  1 25  1  0
  3 26  1  0
  4 27  1  0
  5 28  1  0
 11 29  1  0
 12 30  1  0
 13 31  1  0
 14 32  1  0
 15 33  1  0
 18 34  1  0
 18 35  1  0
 20 36  1  0
 20 37  1  0
 21 38  1  0
 21 39  1  0
 22 40  1  0
M  END
$$$$
