
     RDKit          3D

 76 77  0  0  0  0  0  0  0  0999 V2000
   -8.8963   -0.0241   -0.2233 C   0  0  0  0  0  0  0  0  0  0  0  0
   -7.8892   -1.1161    0.1661 C   0  0  0  0  0  0  0  0  0  0  0  0
   -8.5796   -2.2185    0.9849 C   0  0  0  0  0  0  0  0  0  0  0  0
   -6.6463   -0.5278    0.8793 C   0  0  2  0  0  0  0  0  0  0  0  0
   -5.6779   -1.5637    1.0705 O   0  0  0  0  0  0  0  0  0  0  0  0
   -4.3373   -1.3707    1.4436 C   0  0  0  0  0  0  0  0  0  0  0  0
   -3.7759   -0.0931    1.6352 C   0  0  0  0  0  0  0  0  0  0  0  0
   -2.4344    0.0392    2.0060 C   0  0  0  0  0  0  0  0  0  0  0  0
   -1.6350   -1.0985    2.1934 C   0  0  0  0  0  0  0  0  0  0  0  0
   -0.1830   -0.9637    2.5630 C   0  0  0  0  0  0  0  0  0  0  0  0
    0.6604   -1.3515    1.4357 N   0  0  0  0  0  0  0  0  0  0  0  0
    0.7972   -0.5367    0.2615 C   0  0  0  0  0  0  0  0  0  0  0  0
    0.2298    0.5877    0.1999 O   0  0  0  0  0  0  0  0  0  0  0  0
    1.5781   -1.0344   -0.9278 C   0  0  2  0  0  0  0  0  0  0  0  0
    0.7673   -2.0871   -1.6847 C   0  0  0  0  0  0  0  0  0  0  0  0
    1.9230   -3.2912   -2.3914 S   0  0  0  0  0  0  0  0  0  0  0  0
    3.0959   -2.9806   -1.0439 C   0  0  0  0  0  0  0  0  0  0  0  0
    2.8417   -1.6469   -0.5183 N   0  0  0  0  0  0  0  0  0  0  0  0
    3.8415   -0.9772    0.2773 C   0  0  0  0  0  0  0  0  0  0  0  0
    4.6898   -1.6626    0.9104 O   0  0  0  0  0  0  0  0  0  0  0  0
    3.9681    0.5241    0.3046 C   0  0  0  0  0  0  0  0  0  0  0  0
    4.9929    1.0105   -0.7349 C   0  0  0  0  0  0  0  0  0  0  0  0
    4.5462    0.6417   -2.0831 N   0  0  0  0  0  0  0  0  0  0  0  0
    5.2030    2.5366   -0.6056 C   0  0  0  0  0  0  0  0  0  0  0  0
    6.3030    3.0325   -1.5115 C   0  0  0  0  0  0  0  0  0  0  0  0
    5.9863    3.6212   -2.7482 C   0  0  0  0  0  0  0  0  0  0  0  0
    7.0028    4.0593   -3.6027 C   0  0  0  0  0  0  0  0  0  0  0  0
    6.6891    4.6269   -4.7933 F   0  0  0  0  0  0  0  0  0  0  0  0
    8.3417    3.9095   -3.2320 C   0  0  0  0  0  0  0  0  0  0  0  0
    8.6666    3.3196   -2.0079 C   0  0  0  0  0  0  0  0  0  0  0  0
    7.6544    2.8787   -1.1489 C   0  0  0  0  0  0  0  0  0  0  0  0
    7.9914    2.3028    0.0330 F   0  0  0  0  0  0  0  0  0  0  0  0
   -2.1929   -2.3701    1.9965 C   0  0  0  0  0  0  0  0  0  0  0  0
   -3.5339   -2.5021    1.6261 C   0  0  0  0  0  0  0  0  0  0  0  0
   -6.9929    0.1179    2.1964 C   0  0  0  0  0  0  0  0  0  0  0  0
   -7.0451   -0.5712    3.2507 O   0  0  0  0  0  0  0  0  0  0  0  0
   -7.2769    1.4791    2.2443 O   0  0  0  0  0  0  0  0  0  0  0  0
    0.7924    0.8833   -1.2451 O   0  0  0  0  0  0  0  0  0  0  0  0
    0.4710    0.1226   -0.2932 C   0  0  0  0  0  0  0  0  0  0  0  0
    1.4501   -0.6145    0.3661 O   0  0  0  0  0  0  0  0  0  0  0  0
   -0.9498    0.0577    0.1651 C   0  0  0  0  0  0  0  0  0  0  0  0
   -1.1788   -1.1341    0.8281 F   0  0  0  0  0  0  0  0  0  0  0  0
   -1.8014    0.1389   -0.9218 F   0  0  0  0  0  0  0  0  0  0  0  0
   -1.2035    1.1112    1.0229 F   0  0  0  0  0  0  0  0  0  0  0  0
   -9.3446    0.4434    0.6790 H   0  0  0  0  0  0  0  0  0  0  0  0
   -9.7132   -0.4614   -0.8362 H   0  0  0  0  0  0  0  0  0  0  0  0
   -8.3967    0.7632   -0.8270 H   0  0  0  0  0  0  0  0  0  0  0  0
   -7.5334   -1.5828   -0.7796 H   0  0  0  0  0  0  0  0  0  0  0  0
   -9.0358   -1.8033    1.9083 H   0  0  0  0  0  0  0  0  0  0  0  0
   -7.8523   -3.0096    1.2646 H   0  0  0  0  0  0  0  0  0  0  0  0
   -9.3832   -2.6910    0.3806 H   0  0  0  0  0  0  0  0  0  0  0  0
   -6.2106    0.2425    0.2051 H   0  0  0  0  0  0  0  0  0  0  0  0
   -4.3623    0.8043    1.4993 H   0  0  0  0  0  0  0  0  0  0  0  0
   -2.0193    1.0301    2.1429 H   0  0  0  0  0  0  0  0  0  0  0  0
    0.0652    0.0730    2.8792 H   0  0  0  0  0  0  0  0  0  0  0  0
    0.0309   -1.6289    3.4276 H   0  0  0  0  0  0  0  0  0  0  0  0
    1.1555   -2.2705    1.4808 H   0  0  0  0  0  0  0  0  0  0  0  0
    1.7971   -0.1896   -1.6170 H   0  0  0  0  0  0  0  0  0  0  0  0
    0.1676   -1.6165   -2.4925 H   0  0  0  0  0  0  0  0  0  0  0  0
    0.0811   -2.6407   -1.0064 H   0  0  0  0  0  0  0  0  0  0  0  0
    4.1274   -3.0452   -1.4510 H   0  0  0  0  0  0  0  0  0  0  0  0
    2.9590   -3.7343   -0.2401 H   0  0  0  0  0  0  0  0  0  0  0  0
    2.9922    1.0174    0.1263 H   0  0  0  0  0  0  0  0  0  0  0  0
    4.3005    0.8271    1.3216 H   0  0  0  0  0  0  0  0  0  0  0  0
    5.9613    0.5012   -0.5258 H   0  0  0  0  0  0  0  0  0  0  0  0
    3.7597    1.2659   -2.3766 H   0  0  0  0  0  0  0  0  0  0  0  0
    5.3342    0.7824   -2.7556 H   0  0  0  0  0  0  0  0  0  0  0  0
    5.4664    2.7881    0.4452 H   0  0  0  0  0  0  0  0  0  0  0  0
    4.2516    3.0693   -0.8270 H   0  0  0  0  0  0  0  0  0  0  0  0
    4.9529    3.7361   -3.0515 H   0  0  0  0  0  0  0  0  0  0  0  0
    9.1285    4.2480   -3.8939 H   0  0  0  0  0  0  0  0  0  0  0  0
    9.7050    3.2021   -1.7258 H   0  0  0  0  0  0  0  0  0  0  0  0
   -1.5872   -3.2587    2.1261 H   0  0  0  0  0  0  0  0  0  0  0  0
   -3.9518   -3.4898    1.4782 H   0  0  0  0  0  0  0  0  0  0  0  0
   -7.5196    1.9285    3.1189 H   0  0  0  0  0  0  0  0  0  0  0  0
    2.4200   -0.5650    0.0779 H   0  0  0  0  0  0  0  0  0  0  0  0
  1  2  1  0
  2  3  1  0
  2  4  1  0
  4  5  1  0
  5  6  1  0
  6  7  2  0
  7  8  1  0
  8  9  2  0
  9 10  1  0
 10 11  1  0
 11 12  1  0
 12 13  2  0
 12 14  1  0
 14 15  1  0
 15 16  1  0
 16 17  1  0
 17 18  1  0
 18 19  1  0
 19 20  2  0
 19 21  1  0
 21 22  1  0
 22 23  1  0
 22 24  1  0
 24 25  1  0
 25 26  2  0
 26 27  1  0
 27 28  1  0
 27 29  2  0
 29 30  1  0
 30 31  2  0
 31 32  1  0
  9 33  1  0
 33 34  2  0
  4 35  1  0
 35 36  2  0
 35 37  1  0
 38 39  2  0
 39 40  1  0
 39 41  1  0
 41 42  1  0
 41 43  1  0
 41 44  1  0
 34  6  1  0
 18 14  1  0
 31 25  1  0
  1 45  1  0
  1 46  1  0
  1 47  1  0
  2 48  1  0
  3 49  1  0
  3 50  1  0
  3 51  1  0
  4 52  1  6
  7 53  1  0
  8 54  1  0
 10 55  1  0
 10 56  1  0
 11 57  1  0
 14 58  1  6
 15 59  1  0
 15 60  1  0
 17 61  1  0
 17 62  1  0
 21 63  1  0
 21 64  1  0
 22 65  1  0
 23 66  1  0
 23 67  1  0
 24 68  1  0
 24 69  1  0
 26 70  1  0
 29 71  1  0
 30 72  1  0
 33 73  1  0
 34 74  1  0
 37 75  1  0
 40 76  1  0
M  END
$$$$
