
     RDKit          3D

 61 64  0  0  0  0  0  0  0  0999 V2000
    1.9220    0.7441   -0.1933 N   0  0  0  0  0  0  0  0  0  0  0  0
    1.5870    0.5510   -1.6080 C   0  0  1  0  0  0  0  0  0  0  0  0
    0.2031   -0.1191   -1.7723 C   0  0  0  0  0  0  0  0  0  0  0  0
    0.1625   -1.5041   -1.1717 C   0  0  0  0  0  0  0  0  0  0  0  0
    1.0871   -2.3115   -1.4629 O   0  0  0  0  0  0  0  0  0  0  0  0
   -0.9300   -1.9540   -0.3410 N   0  0  0  0  0  0  0  0  0  0  0  0
   -2.0889   -1.1451    0.0461 C   0  0  2  0  0  0  0  0  0  0  0  0
   -1.7110   -0.0376    0.9969 C   0  0  0  0  0  0  0  0  0  0  0  0
   -0.8095   -0.2272    1.8584 O   0  0  0  0  0  0  0  0  0  0  0  0
   -2.4317    1.2022    0.9663 N   0  0  0  0  0  0  0  0  0  0  0  0
   -2.2541    2.2459    1.9731 C   0  0  0  0  0  0  0  0  0  0  0  0
   -0.8868    2.9212    1.8088 C   0  0  0  0  0  0  0  0  0  0  0  0
   -0.7821    3.8895    0.6411 C   0  0  0  0  0  0  0  0  0  0  0  0
   -0.8577    4.4210    2.0642 C   0  0  0  0  0  0  0  0  0  0  0  0
   -3.0702   -2.1183    0.7137 C   0  0  0  0  0  0  0  0  0  0  0  0
   -2.6330   -3.4927    0.2138 C   0  0  2  0  0  0  0  0  0  0  0  0
   -3.0797   -4.6772    1.0968 C   0  0  0  0  0  0  0  0  0  0  0  0
   -2.1910   -4.8888    2.3241 C   0  0  0  0  0  0  0  0  0  0  0  0
   -0.7247   -4.9949    1.9097 C   0  0  0  0  0  0  0  0  0  0  0  0
   -0.2749   -3.6968    1.2441 C   0  0  0  0  0  0  0  0  0  0  0  0
   -1.1175   -3.3623   -0.0047 C   0  0  2  0  0  0  0  0  0  0  0  0
    1.6143    1.9056   -2.3404 C   0  0  0  0  0  0  0  0  0  0  0  0
    2.9916    2.5215   -2.3090 C   0  0  0  0  0  0  0  0  0  0  0  0
    3.3268    3.4477   -1.3064 C   0  0  0  0  0  0  0  0  0  0  0  0
    4.6102    4.0003   -1.2550 C   0  0  0  0  0  0  0  0  0  0  0  0
    4.9218    4.8956   -0.2854 F   0  0  0  0  0  0  0  0  0  0  0  0
    5.5714    3.6271   -2.1991 C   0  0  0  0  0  0  0  0  0  0  0  0
    6.8168    4.1612   -2.1496 F   0  0  0  0  0  0  0  0  0  0  0  0
    5.2506    2.6980   -3.1927 C   0  0  0  0  0  0  0  0  0  0  0  0
    3.9684    2.1418   -3.2486 C   0  0  0  0  0  0  0  0  0  0  0  0
    3.6814    1.2331   -4.2150 F   0  0  0  0  0  0  0  0  0  0  0  0
    2.0414   -0.1885    0.2638 H   0  0  0  0  0  0  0  0  0  0  0  0
    1.1318    1.2328    0.2846 H   0  0  0  0  0  0  0  0  0  0  0  0
    2.3575   -0.1048   -2.0730 H   0  0  0  0  0  0  0  0  0  0  0  0
   -0.5715    0.5415   -1.3366 H   0  0  0  0  0  0  0  0  0  0  0  0
   -0.0292   -0.2188   -2.8545 H   0  0  0  0  0  0  0  0  0  0  0  0
   -2.5591   -0.7256   -0.8707 H   0  0  0  0  0  0  0  0  0  0  0  0
   -3.1804    1.3323    0.2489 H   0  0  0  0  0  0  0  0  0  0  0  0
   -2.3218    1.8006    2.9884 H   0  0  0  0  0  0  0  0  0  0  0  0
   -3.0836    2.9813    1.8784 H   0  0  0  0  0  0  0  0  0  0  0  0
    0.0445    2.3810    2.0786 H   0  0  0  0  0  0  0  0  0  0  0  0
    0.2289    3.9572    0.1896 H   0  0  0  0  0  0  0  0  0  0  0  0
   -1.7106    4.0424    0.0500 H   0  0  0  0  0  0  0  0  0  0  0  0
   -1.8267    4.9045    2.3119 H   0  0  0  0  0  0  0  0  0  0  0  0
    0.1108    4.8052    2.4484 H   0  0  0  0  0  0  0  0  0  0  0  0
   -2.9893   -2.0756    1.8228 H   0  0  0  0  0  0  0  0  0  0  0  0
   -4.1199   -1.8976    0.4204 H   0  0  0  0  0  0  0  0  0  0  0  0
   -3.1044   -3.6340   -0.7863 H   0  0  0  0  0  0  0  0  0  0  0  0
   -4.1321   -4.5282    1.4225 H   0  0  0  0  0  0  0  0  0  0  0  0
   -3.0549   -5.6043    0.4825 H   0  0  0  0  0  0  0  0  0  0  0  0
   -2.3250   -4.0523    3.0440 H   0  0  0  0  0  0  0  0  0  0  0  0
   -2.4948   -5.8274    2.8358 H   0  0  0  0  0  0  0  0  0  0  0  0
   -0.1019   -5.1786    2.8116 H   0  0  0  0  0  0  0  0  0  0  0  0
   -0.5834   -5.8494    1.2117 H   0  0  0  0  0  0  0  0  0  0  0  0
   -0.3466   -2.8728    1.9874 H   0  0  0  0  0  0  0  0  0  0  0  0
    0.7931   -3.7891    0.9513 H   0  0  0  0  0  0  0  0  0  0  0  0
   -0.8159   -4.0176   -0.8528 H   0  0  0  0  0  0  0  0  0  0  0  0
    1.3020    1.7665   -3.3987 H   0  0  0  0  0  0  0  0  0  0  0  0
    0.8750    2.5977   -1.8805 H   0  0  0  0  0  0  0  0  0  0  0  0
    2.5958    3.7386   -0.5629 H   0  0  0  0  0  0  0  0  0  0  0  0
    5.9979    2.4058   -3.9193 H   0  0  0  0  0  0  0  0  0  0  0  0
  1  2  1  0
  2  3  1  0
  3  4  1  0
  4  5  2  0
  4  6  1  0
  6  7  1  0
  7  8  1  0
  8  9  2  0
  8 10  1  0
 10 11  1  0
 11 12  1  0
 12 13  1  0
 13 14  1  0
  7 15  1  0
 15 16  1  0
 16 17  1  0
 17 18  1  0
 18 19  1  0
 19 20  1  0
 20 21  1  0
  2 22  1  0
 22 23  1  0
 23 24  2  0
 24 25  1  0
 25 26  1  0
 25 27  2  0
 27 28  1  0
 27 29  1  0
 29 30  2  0
 30 31  1  0
 21  6  1  0
 30 23  1  0
 14 12  1  0
 21 16  1  0
  1 32  1  0
  1 33  1  0
  2 34  1  6
  3 35  1  0
  3 36  1  0
  7 37  1  6
 10 38  1  0
 11 39  1  0
 11 40  1  0
 12 41  1  0
 13 42  1  0
 13 43  1  0
 14 44  1  0
 14 45  1  0
 15 46  1  0
 15 47  1  0
 16 48  1  6
 17 49  1  0
 17 50  1  0
 18 51  1  0
 18 52  1  0
 19 53  1  0
 19 54  1  0
 20 55  1  0
 20 56  1  0
 21 57  1  6
 22 58  1  0
 22 59  1  0
 24 60  1  0
 29 61  1  0
M  END
$$$$
