
     RDKit          3D

 63 66  0  0  0  0  0  0  0  0999 V2000
   -2.9752    1.3412    0.0577 N   0  0  0  0  0  0  0  0  0  0  0  0
   -3.4753    0.3103   -0.8621 C   0  0  1  0  0  0  0  0  0  0  0  0
   -2.3695   -0.1162   -1.8514 C   0  0  0  0  0  0  0  0  0  0  0  0
   -1.8612    1.0482   -2.6707 C   0  0  0  0  0  0  0  0  0  0  0  0
   -2.7038    1.7882   -3.2487 O   0  0  0  0  0  0  0  0  0  0  0  0
   -0.4535    1.2987   -2.8724 N   0  0  0  0  0  0  0  0  0  0  0  0
    0.0156    2.2856   -3.8339 C   0  0  0  0  0  0  0  0  0  0  0  0
    1.5355    2.2021   -3.8117 C   0  0  0  0  0  0  0  0  0  0  0  0
    1.8585    0.8626   -3.1615 C   0  0  0  0  0  0  0  0  0  0  0  0
    0.6418    0.5259   -2.2941 C   0  0  1  0  0  0  0  0  0  0  0  0
    0.8616    0.9351   -0.8250 C   0  0  0  0  0  0  0  0  0  0  0  0
    1.8114    0.0305   -0.1768 N   0  0  0  0  0  0  0  0  0  0  0  0
    3.1059    0.4529    0.2848 C   0  0  0  0  0  0  0  0  0  0  0  0
    3.5248    1.6090    0.0022 O   0  0  0  0  0  0  0  0  0  0  0  0
    3.9713   -0.4585    1.0714 C   0  0  0  0  0  0  0  0  0  0  0  0
    3.4198   -1.4957    1.8459 C   0  0  0  0  0  0  0  0  0  0  0  0
    4.2484   -2.3396    2.5901 C   0  0  0  0  0  0  0  0  0  0  0  0
    5.6325   -2.1591    2.5740 C   0  0  0  0  0  0  0  0  0  0  0  0
    6.1980   -1.1298    1.8114 C   0  0  0  0  0  0  0  0  0  0  0  0
    7.9415   -0.8848    1.8036 S   0  0  0  0  0  0  0  0  0  0  0  0
    8.3596    0.3034    2.9874 N   0  0  0  0  0  0  0  0  0  0  0  0
    8.6413   -2.1763    2.1226 O   0  0  0  0  0  0  0  0  0  0  0  0
    8.3816   -0.4213    0.4429 O   0  0  0  0  0  0  0  0  0  0  0  0
    5.3668   -0.2771    1.0717 C   0  0  0  0  0  0  0  0  0  0  0  0
   -4.0920   -0.9170   -0.1239 C   0  0  1  0  0  0  0  0  0  0  0  0
   -3.1344   -1.6439    0.8610 C   0  0  0  0  0  0  0  0  0  0  0  0
   -3.6549   -1.3790    2.2857 C   0  0  0  0  0  0  0  0  0  0  0  0
   -4.9895   -0.7762    2.0706 C   0  0  0  0  0  0  0  0  0  0  0  0
   -5.9318   -0.4665    3.0542 C   0  0  0  0  0  0  0  0  0  0  0  0
   -7.1544    0.1015    2.6643 C   0  0  0  0  0  0  0  0  0  0  0  0
   -8.0852    0.4080    3.6014 F   0  0  0  0  0  0  0  0  0  0  0  0
   -7.4157    0.3498    1.3040 C   0  0  0  0  0  0  0  0  0  0  0  0
   -8.5992    0.8947    0.9284 F   0  0  0  0  0  0  0  0  0  0  0  0
   -6.4527    0.0350    0.3329 C   0  0  0  0  0  0  0  0  0  0  0  0
   -5.2368   -0.5218    0.7438 C   0  0  0  0  0  0  0  0  0  0  0  0
   -2.3001    0.9306    0.7394 H   0  0  0  0  0  0  0  0  0  0  0  0
   -3.7755    1.7366    0.6017 H   0  0  0  0  0  0  0  0  0  0  0  0
   -4.2915    0.7638   -1.4686 H   0  0  0  0  0  0  0  0  0  0  0  0
   -2.7814   -0.8705   -2.5558 H   0  0  0  0  0  0  0  0  0  0  0  0
   -1.5492   -0.6079   -1.3002 H   0  0  0  0  0  0  0  0  0  0  0  0
   -0.3677    2.0323   -4.8465 H   0  0  0  0  0  0  0  0  0  0  0  0
   -0.3269    3.3024   -3.5433 H   0  0  0  0  0  0  0  0  0  0  0  0
    1.9463    3.0254   -3.1865 H   0  0  0  0  0  0  0  0  0  0  0  0
    1.9631    2.2700   -4.8355 H   0  0  0  0  0  0  0  0  0  0  0  0
    1.9647    0.0920   -3.9569 H   0  0  0  0  0  0  0  0  0  0  0  0
    2.8107    0.9087   -2.5911 H   0  0  0  0  0  0  0  0  0  0  0  0
    0.4329   -0.5636   -2.3728 H   0  0  0  0  0  0  0  0  0  0  0  0
   -0.0956    0.8839   -0.2702 H   0  0  0  0  0  0  0  0  0  0  0  0
    1.2032    1.9914   -0.7682 H   0  0  0  0  0  0  0  0  0  0  0  0
    1.5403   -0.9754   -0.1039 H   0  0  0  0  0  0  0  0  0  0  0  0
    2.3496   -1.6424    1.9029 H   0  0  0  0  0  0  0  0  0  0  0  0
    3.8150   -3.1310    3.1881 H   0  0  0  0  0  0  0  0  0  0  0  0
    6.2602   -2.8169    3.1614 H   0  0  0  0  0  0  0  0  0  0  0  0
    9.3882    0.4664    2.9067 H   0  0  0  0  0  0  0  0  0  0  0  0
    7.8902    1.1931    2.7054 H   0  0  0  0  0  0  0  0  0  0  0  0
    5.8105    0.5218    0.4898 H   0  0  0  0  0  0  0  0  0  0  0  0
   -4.4626   -1.6441   -0.8807 H   0  0  0  0  0  0  0  0  0  0  0  0
   -2.0750   -1.3289    0.7723 H   0  0  0  0  0  0  0  0  0  0  0  0
   -3.1713   -2.7375    0.6606 H   0  0  0  0  0  0  0  0  0  0  0  0
   -3.7369   -2.3230    2.8665 H   0  0  0  0  0  0  0  0  0  0  0  0
   -2.9985   -0.6556    2.8155 H   0  0  0  0  0  0  0  0  0  0  0  0
   -5.7246   -0.6639    4.0982 H   0  0  0  0  0  0  0  0  0  0  0  0
   -6.6486    0.2227   -0.7149 H   0  0  0  0  0  0  0  0  0  0  0  0
  1  2  1  0
  2  3  1  0
  3  4  1  0
  4  5  2  0
  4  6  1  0
  6  7  1  0
  7  8  1  0
  8  9  1  0
  9 10  1  0
 10 11  1  0
 11 12  1  0
 12 13  1  0
 13 14  2  0
 13 15  1  0
 15 16  2  0
 16 17  1  0
 17 18  2  0
 18 19  1  0
 19 20  1  0
 20 21  1  0
 20 22  2  0
 20 23  2  0
 19 24  2  0
  2 25  1  0
 25 26  1  0
 26 27  1  0
 27 28  1  0
 28 29  2  0
 29 30  1  0
 30 31  1  0
 30 32  2  0
 32 33  1  0
 32 34  1  0
 34 35  2  0
 10  6  1  0
 24 15  1  0
 35 25  1  0
 35 28  1  0
  1 36  1  0
  1 37  1  0
  2 38  1  6
  3 39  1  0
  3 40  1  0
  7 41  1  0
  7 42  1  0
  8 43  1  0
  8 44  1  0
  9 45  1  0
  9 46  1  0
 10 47  1  1
 11 48  1  0
 11 49  1  0
 12 50  1  0
 16 51  1  0
 17 52  1  0
 18 53  1  0
 21 54  1  0
 21 55  1  0
 24 56  1  0
 25 57  1  6
 26 58  1  0
 26 59  1  0
 27 60  1  0
 27 61  1  0
 29 62  1  0
 34 63  1  0
M  END
$$$$
