
     RDKit          3D

 71 75  0  0  0  0  0  0  0  0999 V2000
   -0.9537   -1.8077    2.6154 O   0  0  0  0  0  0  0  0  0  0  0  0
   -0.8470   -2.4707    1.5470 C   0  0  0  0  0  0  0  0  0  0  0  0
   -0.7879   -1.7358    0.2260 C   0  0  2  0  0  0  0  0  0  0  0  0
    0.6554   -1.3780   -0.1399 C   0  0  0  0  0  0  0  0  0  0  0  0
    0.5902    0.0432   -0.7043 C   0  0  2  0  0  0  0  0  0  0  0  0
    1.7814    0.8213   -0.3552 N   0  0  0  0  0  0  0  0  0  0  0  0
    2.7069    1.2892   -1.2093 C   0  0  0  0  0  0  0  0  0  0  0  0
    3.6543    1.9192   -0.4338 C   0  0  0  0  0  0  0  0  0  0  0  0
    4.9160    2.5664   -0.9140 C   0  0  0  0  0  0  0  0  0  0  0  0
    5.8398    1.5545   -1.4638 N   0  0  0  0  0  0  0  0  0  0  0  0
    6.4520    0.7522   -0.3854 C   0  0  0  0  0  0  0  0  0  0  0  0
    7.4536   -0.2422   -0.9844 C   0  0  0  0  0  0  0  0  0  0  0  0
    8.4634    0.4381   -1.7045 O   0  0  0  0  0  0  0  0  0  0  0  0
    7.8837    1.1559   -2.7767 C   0  0  0  0  0  0  0  0  0  0  0  0
    6.8977    2.2089   -2.2555 C   0  0  0  0  0  0  0  0  0  0  0  0
    3.2927    1.8091    0.8602 N   0  0  0  0  0  0  0  0  0  0  0  0
    2.1503    1.1372    0.8780 N   0  0  0  0  0  0  0  0  0  0  0  0
   -0.6848    0.6604   -0.1315 C   0  0  0  0  0  0  0  0  0  0  0  0
   -1.5038   -0.4655    0.2894 N   0  0  0  0  0  0  0  0  0  0  0  0
   -2.9184   -0.3703    0.5472 C   0  0  0  0  0  0  0  0  0  0  0  0
   -3.6123   -1.4232    0.5948 O   0  0  0  0  0  0  0  0  0  0  0  0
   -3.5936    0.9700    0.6908 C   0  0  0  0  0  0  0  0  0  0  0  0
   -4.7933    0.9120    1.6504 C   0  0  0  0  0  0  0  0  0  0  0  0
   -5.3943    2.2997    1.9173 C   0  0  0  0  0  0  0  0  0  0  0  0
   -6.0241    2.8893    0.6811 C   0  0  0  0  0  0  0  0  0  0  0  0
   -5.3308    3.8403   -0.0870 C   0  0  0  0  0  0  0  0  0  0  0  0
   -5.9081    4.3643   -1.2478 C   0  0  0  0  0  0  0  0  0  0  0  0
   -7.1771    3.9407   -1.6518 C   0  0  0  0  0  0  0  0  0  0  0  0
   -7.8702    2.9905   -0.8970 C   0  0  0  0  0  0  0  0  0  0  0  0
   -7.2964    2.4634    0.2642 C   0  0  0  0  0  0  0  0  0  0  0  0
   -0.7075   -3.9014    1.6143 N   0  0  0  0  0  0  0  0  0  0  0  0
   -0.6445   -4.6251    2.8719 C   0  0  0  0  0  0  0  0  0  0  0  0
   -0.2635   -6.0535    2.5071 C   0  0  0  0  0  0  0  0  0  0  0  0
   -0.5263   -6.1891    1.0096 C   0  0  0  0  0  0  0  0  0  0  0  0
   -0.5608   -4.7697    0.4580 C   0  0  0  0  0  0  0  0  0  0  0  0
   -1.2371   -2.3477   -0.5848 H   0  0  0  0  0  0  0  0  0  0  0  0
    1.3123   -1.4047    0.7588 H   0  0  0  0  0  0  0  0  0  0  0  0
    1.0635   -2.0859   -0.8939 H   0  0  0  0  0  0  0  0  0  0  0  0
    0.4872   -0.0202   -1.8121 H   0  0  0  0  0  0  0  0  0  0  0  0
    2.6987    1.1692   -2.2851 H   0  0  0  0  0  0  0  0  0  0  0  0
    5.3914    3.1387   -0.0854 H   0  0  0  0  0  0  0  0  0  0  0  0
    4.6299    3.2975   -1.7027 H   0  0  0  0  0  0  0  0  0  0  0  0
    6.9791    1.4052    0.3476 H   0  0  0  0  0  0  0  0  0  0  0  0
    5.6690    0.1760    0.1536 H   0  0  0  0  0  0  0  0  0  0  0  0
    6.9298   -0.9801   -1.6340 H   0  0  0  0  0  0  0  0  0  0  0  0
    7.9310   -0.8098   -0.1581 H   0  0  0  0  0  0  0  0  0  0  0  0
    7.3768    0.4659   -3.4893 H   0  0  0  0  0  0  0  0  0  0  0  0
    8.6934    1.6709   -3.3353 H   0  0  0  0  0  0  0  0  0  0  0  0
    7.4481    2.9572   -1.6399 H   0  0  0  0  0  0  0  0  0  0  0  0
    6.4486    2.7302   -3.1293 H   0  0  0  0  0  0  0  0  0  0  0  0
   -0.4751    1.3077    0.7468 H   0  0  0  0  0  0  0  0  0  0  0  0
   -1.2064    1.2519   -0.9155 H   0  0  0  0  0  0  0  0  0  0  0  0
   -3.9285    1.2996   -0.3154 H   0  0  0  0  0  0  0  0  0  0  0  0
   -2.8664    1.7131    1.0806 H   0  0  0  0  0  0  0  0  0  0  0  0
   -4.4585    0.4864    2.6219 H   0  0  0  0  0  0  0  0  0  0  0  0
   -5.5785    0.2411    1.2369 H   0  0  0  0  0  0  0  0  0  0  0  0
   -6.1695    2.2064    2.7088 H   0  0  0  0  0  0  0  0  0  0  0  0
   -4.6101    2.9782    2.3195 H   0  0  0  0  0  0  0  0  0  0  0  0
   -4.3430    4.1709    0.2096 H   0  0  0  0  0  0  0  0  0  0  0  0
   -5.3702    5.0967   -1.8357 H   0  0  0  0  0  0  0  0  0  0  0  0
   -7.6221    4.3466   -2.5511 H   0  0  0  0  0  0  0  0  0  0  0  0
   -8.8514    2.6603   -1.2130 H   0  0  0  0  0  0  0  0  0  0  0  0
   -7.8408    1.7230    0.8372 H   0  0  0  0  0  0  0  0  0  0  0  0
   -1.6396   -4.5987    3.3665 H   0  0  0  0  0  0  0  0  0  0  0  0
    0.1229   -4.1778    3.5408 H   0  0  0  0  0  0  0  0  0  0  0  0
    0.8186   -6.2139    2.7088 H   0  0  0  0  0  0  0  0  0  0  0  0
   -0.8560   -6.7916    3.0902 H   0  0  0  0  0  0  0  0  0  0  0  0
    0.2628   -6.7960    0.5148 H   0  0  0  0  0  0  0  0  0  0  0  0
   -1.5135   -6.6764    0.8501 H   0  0  0  0  0  0  0  0  0  0  0  0
    0.3882   -4.5335   -0.0700 H   0  0  0  0  0  0  0  0  0  0  0  0
   -1.4237   -4.6501   -0.2319 H   0  0  0  0  0  0  0  0  0  0  0  0
  1  2  2  0
  2  3  1  0
  3  4  1  0
  4  5  1  0
  5  6  1  0
  6  7  1  0
  7  8  2  0
  8  9  1  0
  9 10  1  0
 10 11  1  0
 11 12  1  0
 12 13  1  0
 13 14  1  0
 14 15  1  0
  8 16  1  0
 16 17  2  0
  5 18  1  0
 18 19  1  0
 19 20  1  0
 20 21  2  0
 20 22  1  0
 22 23  1  0
 23 24  1  0
 24 25  1  0
 25 26  2  0
 26 27  1  0
 27 28  2  0
 28 29  1  0
 29 30  2  0
  2 31  1  0
 31 32  1  0
 32 33  1  0
 33 34  1  0
 34 35  1  0
 19  3  1  0
 30 25  1  0
 35 31  1  0
 17  6  1  0
 15 10  1  0
  3 36  1  6
  4 37  1  0
  4 38  1  0
  5 39  1  6
  7 40  1  0
  9 41  1  0
  9 42  1  0
 11 43  1  0
 11 44  1  0
 12 45  1  0
 12 46  1  0
 14 47  1  0
 14 48  1  0
 15 49  1  0
 15 50  1  0
 18 51  1  0
 18 52  1  0
 22 53  1  0
 22 54  1  0
 23 55  1  0
 23 56  1  0
 24 57  1  0
 24 58  1  0
 26 59  1  0
 27 60  1  0
 28 61  1  0
 29 62  1  0
 30 63  1  0
 32 64  1  0
 32 65  1  0
 33 66  1  0
 33 67  1  0
 34 68  1  0
 34 69  1  0
 35 70  1  0
 35 71  1  0
M  END
$$$$
