
     RDKit          3D

 45 47  0  0  0  0  0  0  0  0999 V2000
    7.5631    0.7098    1.8373 C   0  0  0  0  0  0  0  0  0  0  0  0
    6.2459    0.5505    1.1376 C   0  0  0  0  0  0  0  0  0  0  0  0
    6.1037   -0.3843    0.1028 C   0  0  0  0  0  0  0  0  0  0  0  0
    4.8872   -0.5079   -0.5747 C   0  0  0  0  0  0  0  0  0  0  0  0
    3.7948    0.3107   -0.2378 C   0  0  0  0  0  0  0  0  0  0  0  0
    2.5113    0.1666   -0.9643 C   0  0  0  0  0  0  0  0  0  0  0  0
    1.3428    0.8797   -0.7692 C   0  0  0  0  0  0  0  0  0  0  0  0
    0.4547    0.3898   -1.6504 N   0  0  0  0  0  0  0  0  0  0  0  0
   -0.9310    0.8157   -1.8256 C   0  0  0  0  0  0  0  0  0  0  0  0
   -1.9162   -0.2872   -1.4086 C   0  0  0  0  0  0  0  0  0  0  0  0
   -1.9578   -0.5182    0.1197 C   0  0  2  0  0  0  0  0  0  0  0  0
   -0.6880   -1.0910    0.5745 N   0  0  0  0  0  0  0  0  0  0  0  0
   -3.1306   -1.4441    0.5225 C   0  0  0  0  0  0  0  0  0  0  0  0
   -4.4749   -0.7818    0.3368 C   0  0  0  0  0  0  0  0  0  0  0  0
   -5.2751   -1.1060   -0.7727 C   0  0  0  0  0  0  0  0  0  0  0  0
   -6.5128   -0.4823   -0.9580 C   0  0  0  0  0  0  0  0  0  0  0  0
   -7.2757   -0.8011   -2.0328 F   0  0  0  0  0  0  0  0  0  0  0  0
   -6.9617    0.4699   -0.0380 C   0  0  0  0  0  0  0  0  0  0  0  0
   -8.1617    1.0757   -0.2169 F   0  0  0  0  0  0  0  0  0  0  0  0
   -6.1729    0.7990    1.0677 C   0  0  0  0  0  0  0  0  0  0  0  0
   -4.9337    0.1789    1.2577 C   0  0  0  0  0  0  0  0  0  0  0  0
   -4.1840    0.5128    2.3388 F   0  0  0  0  0  0  0  0  0  0  0  0
    1.0395   -0.5664   -2.3529 N   0  0  0  0  0  0  0  0  0  0  0  0
    2.2936   -0.7247   -1.9557 N   0  0  0  0  0  0  0  0  0  0  0  0
    3.9486    1.2599    0.7894 C   0  0  0  0  0  0  0  0  0  0  0  0
    5.1660    1.3821    1.4659 C   0  0  0  0  0  0  0  0  0  0  0  0
    8.1090   -0.2571    1.8699 H   0  0  0  0  0  0  0  0  0  0  0  0
    8.1807    1.4563    1.2957 H   0  0  0  0  0  0  0  0  0  0  0  0
    7.4124    1.0540    2.8827 H   0  0  0  0  0  0  0  0  0  0  0  0
    6.9346   -1.0190   -0.1798 H   0  0  0  0  0  0  0  0  0  0  0  0
    4.8037   -1.2432   -1.3652 H   0  0  0  0  0  0  0  0  0  0  0  0
    1.1439    1.6688   -0.0566 H   0  0  0  0  0  0  0  0  0  0  0  0
   -1.1283    1.7430   -1.2439 H   0  0  0  0  0  0  0  0  0  0  0  0
   -1.0948    1.0566   -2.8981 H   0  0  0  0  0  0  0  0  0  0  0  0
   -1.6682   -1.2356   -1.9338 H   0  0  0  0  0  0  0  0  0  0  0  0
   -2.9207    0.0299   -1.7594 H   0  0  0  0  0  0  0  0  0  0  0  0
   -2.0942    0.4656    0.6223 H   0  0  0  0  0  0  0  0  0  0  0  0
   -0.6001   -2.0716    0.2198 H   0  0  0  0  0  0  0  0  0  0  0  0
   -0.6886   -1.1310    1.6197 H   0  0  0  0  0  0  0  0  0  0  0  0
   -3.0789   -2.3902   -0.0606 H   0  0  0  0  0  0  0  0  0  0  0  0
   -3.0266   -1.7298    1.5921 H   0  0  0  0  0  0  0  0  0  0  0  0
   -4.9373   -1.8372   -1.4966 H   0  0  0  0  0  0  0  0  0  0  0  0
   -6.5220    1.5367    1.7788 H   0  0  0  0  0  0  0  0  0  0  0  0
    3.1347    1.9128    1.0728 H   0  0  0  0  0  0  0  0  0  0  0  0
    5.2657    2.1257    2.2471 H   0  0  0  0  0  0  0  0  0  0  0  0
  1  2  1  0
  2  3  2  0
  3  4  1  0
  4  5  2  0
  5  6  1  0
  6  7  2  0
  7  8  1  0
  8  9  1  0
  9 10  1  0
 10 11  1  0
 11 12  1  0
 11 13  1  0
 13 14  1  0
 14 15  2  0
 15 16  1  0
 16 17  1  0
 16 18  2  0
 18 19  1  0
 18 20  1  0
 20 21  2  0
 21 22  1  0
  8 23  1  0
 23 24  2  0
  5 25  1  0
 25 26  2  0
 26  2  1  0
 24  6  1  0
 21 14  1  0
  1 27  1  0
  1 28  1  0
  1 29  1  0
  3 30  1  0
  4 31  1  0
  7 32  1  0
  9 33  1  0
  9 34  1  0
 10 35  1  0
 10 36  1  0
 11 37  1  1
 12 38  1  0
 12 39  1  0
 13 40  1  0
 13 41  1  0
 15 42  1  0
 20 43  1  0
 25 44  1  0
 26 45  1  0
M  END
$$$$
