
     RDKit          3D

 50 54  0  0  0  0  0  0  0  0999 V2000
    2.0769    0.7667   -3.1612 O   0  0  0  0  0  0  0  0  0  0  0  0
    2.1322    0.8204   -1.9018 C   0  0  0  0  0  0  0  0  0  0  0  0
    1.2594    1.8078   -1.1664 C   0  0  2  0  0  0  0  0  0  0  0  0
   -0.0688    1.1748   -0.7565 C   0  0  0  0  0  0  0  0  0  0  0  0
   -1.0724    2.2946   -0.9261 C   0  0  2  0  0  0  0  0  0  0  0  0
   -2.4168    1.7841   -1.2293 N   0  0  0  0  0  0  0  0  0  0  0  0
   -3.2261    1.0376   -0.2984 C   0  0  0  0  0  0  0  0  0  0  0  0
   -4.3804    0.3898   -0.7666 C   0  0  0  0  0  0  0  0  0  0  0  0
   -5.1909   -0.3455    0.1014 C   0  0  0  0  0  0  0  0  0  0  0  0
   -4.8631   -0.4425    1.4598 C   0  0  0  0  0  0  0  0  0  0  0  0
   -5.6701   -1.1798    2.3404 C   0  0  0  0  0  0  0  0  0  0  0  0
   -5.3336   -1.2663    3.6943 C   0  0  0  0  0  0  0  0  0  0  0  0
   -4.1935   -0.6194    4.1781 C   0  0  0  0  0  0  0  0  0  0  0  0
   -3.3818    0.1181    3.3114 C   0  0  0  0  0  0  0  0  0  0  0  0
   -3.7077    0.2122    1.9487 C   0  0  0  0  0  0  0  0  0  0  0  0
   -2.8997    0.9499    1.0695 C   0  0  0  0  0  0  0  0  0  0  0  0
   -0.4901    3.1069   -2.0752 C   0  0  0  0  0  0  0  0  0  0  0  0
    0.9658    2.9690   -2.0193 N   0  0  0  0  0  0  0  0  0  0  0  0
    2.9760   -0.1036   -1.1929 N   0  0  0  0  0  0  0  0  0  0  0  0
    3.0920   -0.1811    0.2661 C   0  0  0  0  0  0  0  0  0  0  0  0
    4.0390   -1.3036    0.4674 C   0  0  0  0  0  0  0  0  0  0  0  0
    4.5113   -1.8208    1.6749 C   0  0  0  0  0  0  0  0  0  0  0  0
    5.4125   -2.8971    1.6362 C   0  0  0  0  0  0  0  0  0  0  0  0
    5.8235   -3.4345    0.4010 C   0  0  0  0  0  0  0  0  0  0  0  0
    5.3352   -2.8981   -0.8015 C   0  0  0  0  0  0  0  0  0  0  0  0
    4.4406   -1.8284   -0.7392 C   0  0  0  0  0  0  0  0  0  0  0  0
    3.7997   -1.1100   -1.8664 C   0  0  0  0  0  0  0  0  0  0  0  0
    1.7875    2.1540   -0.2487 H   0  0  0  0  0  0  0  0  0  0  0  0
   -0.3332    0.3263   -1.4289 H   0  0  0  0  0  0  0  0  0  0  0  0
   -0.0345    0.8120    0.2927 H   0  0  0  0  0  0  0  0  0  0  0  0
   -1.0968    2.9371   -0.0181 H   0  0  0  0  0  0  0  0  0  0  0  0
   -2.8140    1.9564   -2.1814 H   0  0  0  0  0  0  0  0  0  0  0  0
   -4.6506    0.4496   -1.8135 H   0  0  0  0  0  0  0  0  0  0  0  0
   -6.0731   -0.8383   -0.2899 H   0  0  0  0  0  0  0  0  0  0  0  0
   -6.5582   -1.6871    1.9828 H   0  0  0  0  0  0  0  0  0  0  0  0
   -5.9583   -1.8358    4.3702 H   0  0  0  0  0  0  0  0  0  0  0  0
   -3.9381   -0.6897    5.2276 H   0  0  0  0  0  0  0  0  0  0  0  0
   -2.5016    0.6126    3.7048 H   0  0  0  0  0  0  0  0  0  0  0  0
   -2.0291    1.4574    1.4607 H   0  0  0  0  0  0  0  0  0  0  0  0
   -0.7975    4.1741   -1.9999 H   0  0  0  0  0  0  0  0  0  0  0  0
   -0.8342    2.7114   -3.0558 H   0  0  0  0  0  0  0  0  0  0  0  0
    1.3610    3.8273   -1.5662 H   0  0  0  0  0  0  0  0  0  0  0  0
    3.5179    0.7595    0.6748 H   0  0  0  0  0  0  0  0  0  0  0  0
    2.1090   -0.4178    0.7247 H   0  0  0  0  0  0  0  0  0  0  0  0
    4.1907   -1.4024    2.6201 H   0  0  0  0  0  0  0  0  0  0  0  0
    5.7925   -3.3152    2.5593 H   0  0  0  0  0  0  0  0  0  0  0  0
    6.5181   -4.2640    0.3782 H   0  0  0  0  0  0  0  0  0  0  0  0
    5.6460   -3.3058   -1.7547 H   0  0  0  0  0  0  0  0  0  0  0  0
    4.5656   -0.6207   -2.5050 H   0  0  0  0  0  0  0  0  0  0  0  0
    3.1622   -1.8018   -2.4573 H   0  0  0  0  0  0  0  0  0  0  0  0
  1  2  2  0
  2  3  1  0
  3  4  1  0
  4  5  1  0
  5  6  1  0
  6  7  1  0
  7  8  2  0
  8  9  1  0
  9 10  2  0
 10 11  1  0
 11 12  2  0
 12 13  1  0
 13 14  2  0
 14 15  1  0
 15 16  2  0
  5 17  1  0
 17 18  1  0
  2 19  1  0
 19 20  1  0
 20 21  1  0
 21 22  2  0
 22 23  1  0
 23 24  2  0
 24 25  1  0
 25 26  2  0
 26 27  1  0
 18  3  1  0
 27 19  1  0
 16  7  1  0
 26 21  1  0
 15 10  1  0
  3 28  1  1
  4 29  1  0
  4 30  1  0
  5 31  1  1
  6 32  1  0
  8 33  1  0
  9 34  1  0
 11 35  1  0
 12 36  1  0
 13 37  1  0
 14 38  1  0
 16 39  1  0
 17 40  1  0
 17 41  1  0
 18 42  1  0
 20 43  1  0
 20 44  1  0
 22 45  1  0
 23 46  1  0
 24 47  1  0
 25 48  1  0
 27 49  1  0
 27 50  1  0
M  END
$$$$
