
     RDKit          3D

 64 69  0  0  0  0  0  0  0  0999 V2000
   -3.1814    0.8840   -4.5483 C   0  0  0  0  0  0  0  0  0  0  0  0
   -2.6586    0.2086   -3.3612 C   0  0  0  0  0  0  0  0  0  0  0  0
   -2.2290   -0.3462   -2.3814 C   0  0  0  0  0  0  0  0  0  0  0  0
   -1.7090   -1.0159   -1.1861 C   0  0  0  0  0  0  0  0  0  0  0  0
   -1.7165   -0.0926   -0.0489 N   0  0  0  0  0  0  0  0  0  0  0  0
   -2.6014   -0.0376    0.9863 C   0  0  0  0  0  0  0  0  0  0  0  0
   -3.7796   -0.8536    1.0864 N   0  0  0  0  0  0  0  0  0  0  0  0
   -4.7453   -0.9072   -0.0198 C   0  0  0  0  0  0  0  0  0  0  0  0
   -6.1674   -0.7391    0.5220 C   0  0  0  0  0  0  0  0  0  0  0  0
   -6.5138   -1.7663    1.6219 C   0  0  0  0  0  0  0  0  0  0  0  0
   -5.2748   -2.4578    2.2417 C   0  0  2  0  0  0  0  0  0  0  0  0
   -5.5906   -3.0491    3.5435 N   0  0  0  0  0  0  0  0  0  0  0  0
   -4.0940   -1.4831    2.3757 C   0  0  0  0  0  0  0  0  0  0  0  0
   -2.2704    0.8720    1.9400 N   0  0  0  0  0  0  0  0  0  0  0  0
   -1.1410    1.4122    1.4508 C   0  0  0  0  0  0  0  0  0  0  0  0
   -0.3587    2.4043    2.0165 C   0  0  0  0  0  0  0  0  0  0  0  0
    0.7572    2.7953    1.3363 N   0  0  0  0  0  0  0  0  0  0  0  0
    1.1038    2.2585    0.1528 N   0  0  0  0  0  0  0  0  0  0  0  0
    2.3376    2.7257   -0.4896 C   0  0  0  0  0  0  0  0  0  0  0  0
    3.4455    1.7141   -0.3190 C   0  0  0  0  0  0  0  0  0  0  0  0
    3.5490    1.1355    0.8419 N   0  0  0  0  0  0  0  0  0  0  0  0
    4.4578    0.1217    1.2843 C   0  0  0  0  0  0  0  0  0  0  0  0
    4.7136    0.0351    2.6604 C   0  0  0  0  0  0  0  0  0  0  0  0
    5.4536   -1.0279    3.1826 C   0  0  0  0  0  0  0  0  0  0  0  0
    5.9178   -2.0346    2.3366 C   0  0  0  0  0  0  0  0  0  0  0  0
    5.6504   -1.9719    0.9678 C   0  0  0  0  0  0  0  0  0  0  0  0
    4.9355   -0.8932    0.4301 C   0  0  0  0  0  0  0  0  0  0  0  0
    4.7173   -0.8792   -0.9459 O   0  0  0  0  0  0  0  0  0  0  0  0
    4.9444    0.2429   -1.7391 C   0  0  0  0  0  0  0  0  0  0  0  0
    5.7210    0.0740   -2.8930 C   0  0  0  0  0  0  0  0  0  0  0  0
    6.0439    1.1658   -3.6983 C   0  0  0  0  0  0  0  0  0  0  0  0
    5.5855    2.4371   -3.3601 C   0  0  0  0  0  0  0  0  0  0  0  0
    4.7808    2.6124   -2.2327 C   0  0  0  0  0  0  0  0  0  0  0  0
    4.4299    1.5163   -1.4169 C   0  0  0  0  0  0  0  0  0  0  0  0
    0.3391    1.2673   -0.4208 C   0  0  0  0  0  0  0  0  0  0  0  0
    0.6604    0.7576   -1.5287 O   0  0  0  0  0  0  0  0  0  0  0  0
   -0.8043    0.8492    0.2631 C   0  0  0  0  0  0  0  0  0  0  0  0
   -4.2509    1.1334   -4.3906 H   0  0  0  0  0  0  0  0  0  0  0  0
   -2.6067    1.8162   -4.7264 H   0  0  0  0  0  0  0  0  0  0  0  0
   -3.0833    0.2151   -5.4280 H   0  0  0  0  0  0  0  0  0  0  0  0
   -2.3230   -1.9123   -0.9666 H   0  0  0  0  0  0  0  0  0  0  0  0
   -0.6778   -1.3757   -1.3812 H   0  0  0  0  0  0  0  0  0  0  0  0
   -4.6607   -1.8824   -0.5452 H   0  0  0  0  0  0  0  0  0  0  0  0
   -4.5485   -0.0937   -0.7513 H   0  0  0  0  0  0  0  0  0  0  0  0
   -6.2606    0.2872    0.9411 H   0  0  0  0  0  0  0  0  0  0  0  0
   -6.8945   -0.8242   -0.3145 H   0  0  0  0  0  0  0  0  0  0  0  0
   -7.1760   -2.5505    1.1939 H   0  0  0  0  0  0  0  0  0  0  0  0
   -7.0965   -1.2464    2.4138 H   0  0  0  0  0  0  0  0  0  0  0  0
   -4.9560   -3.2779    1.5591 H   0  0  0  0  0  0  0  0  0  0  0  0
   -5.9418   -2.3039    4.1886 H   0  0  0  0  0  0  0  0  0  0  0  0
   -6.3641   -3.7419    3.4161 H   0  0  0  0  0  0  0  0  0  0  0  0
   -3.2045   -2.0445    2.7369 H   0  0  0  0  0  0  0  0  0  0  0  0
   -4.3378   -0.6932    3.1196 H   0  0  0  0  0  0  0  0  0  0  0  0
   -0.6151    2.8551    2.9659 H   0  0  0  0  0  0  0  0  0  0  0  0
    2.6618    3.6898   -0.0403 H   0  0  0  0  0  0  0  0  0  0  0  0
    2.1365    2.9150   -1.5669 H   0  0  0  0  0  0  0  0  0  0  0  0
    4.3221    0.7891    3.3321 H   0  0  0  0  0  0  0  0  0  0  0  0
    5.6494   -1.0811    4.2458 H   0  0  0  0  0  0  0  0  0  0  0  0
    6.4805   -2.8660    2.7414 H   0  0  0  0  0  0  0  0  0  0  0  0
    6.0129   -2.7577    0.3170 H   0  0  0  0  0  0  0  0  0  0  0  0
    6.0989   -0.9075   -3.1502 H   0  0  0  0  0  0  0  0  0  0  0  0
    6.6583    1.0275   -4.5785 H   0  0  0  0  0  0  0  0  0  0  0  0
    5.8427    3.2870   -3.9792 H   0  0  0  0  0  0  0  0  0  0  0  0
    4.4269    3.6095   -2.0032 H   0  0  0  0  0  0  0  0  0  0  0  0
  1  2  1  0
  2  3  3  0
  3  4  1  0
  4  5  1  0
  5  6  1  0
  6  7  1  0
  7  8  1  0
  8  9  1  0
  9 10  1  0
 10 11  1  0
 11 12  1  0
 11 13  1  0
  6 14  2  0
 14 15  1  0
 15 16  1  0
 16 17  2  0
 17 18  1  0
 18 19  1  0
 19 20  1  0
 20 21  2  0
 21 22  1  0
 22 23  2  0
 23 24  1  0
 24 25  2  0
 25 26  1  0
 26 27  2  0
 27 28  1  0
 28 29  1  0
 29 30  2  0
 30 31  1  0
 31 32  2  0
 32 33  1  0
 33 34  2  0
 18 35  1  0
 35 36  2  0
 35 37  1  0
 37  5  1  0
 13  7  1  0
 37 15  2  0
 34 20  1  0
 27 22  1  0
 34 29  1  0
  1 38  1  0
  1 39  1  0
  1 40  1  0
  4 41  1  0
  4 42  1  0
  8 43  1  0
  8 44  1  0
  9 45  1  0
  9 46  1  0
 10 47  1  0
 10 48  1  0
 11 49  1  6
 12 50  1  0
 12 51  1  0
 13 52  1  0
 13 53  1  0
 16 54  1  0
 19 55  1  0
 19 56  1  0
 23 57  1  0
 24 58  1  0
 25 59  1  0
 26 60  1  0
 30 61  1  0
 31 62  1  0
 32 63  1  0
 33 64  1  0
M  END
$$$$
