
     RDKit          3D

 40 41  0  0  0  0  0  0  0  0999 V2000
    3.7677   -0.9314    3.5182 N   0  0  0  0  0  0  0  0  0  0  0  0
    3.6335   -1.1468    2.3892 C   0  0  0  0  0  0  0  0  0  0  0  0
    3.4619   -1.4201    0.9530 C   0  0  2  0  0  0  0  0  0  0  0  0
    4.7559   -1.1633    0.1827 C   0  0  0  0  0  0  0  0  0  0  0  0
    4.6060    0.2297   -0.4201 C   0  0  0  0  0  0  0  0  0  0  0  0
    3.0979    0.4814   -0.5025 C   0  0  2  0  0  0  0  0  0  0  0  0
    2.7701    1.8532   -0.0789 C   0  0  0  0  0  0  0  0  0  0  0  0
    2.5117    2.9310    0.2540 N   0  0  0  0  0  0  0  0  0  0  0  0
    2.4843   -0.4995    0.3882 N   0  0  0  0  0  0  0  0  0  0  0  0
    1.0626   -0.6778    0.5692 C   0  0  0  0  0  0  0  0  0  0  0  0
    0.6470   -1.5234    1.4085 O   0  0  0  0  0  0  0  0  0  0  0  0
    0.0617    0.1678   -0.1720 C   0  0  0  0  0  0  0  0  0  0  0  0
   -1.2376   -0.5242   -0.2437 N   0  0  0  0  0  0  0  0  0  0  0  0
   -2.4046    0.3535   -0.5260 C   0  0  0  0  0  0  0  0  0  0  0  0
   -2.1596    1.3051   -1.7306 C   0  0  0  0  0  0  0  0  0  0  0  0
   -1.7398    0.5895   -2.8623 O   0  0  0  0  0  0  0  0  0  0  0  0
   -2.8080    1.1308    0.7389 C   0  0  0  0  0  0  0  0  0  0  0  0
   -3.6661    0.1779    1.5641 C   0  0  0  0  0  0  0  0  0  0  0  0
   -4.1747   -0.8940    0.6049 C   0  0  0  0  0  0  0  0  0  0  0  0
   -3.6443   -0.5237   -0.7733 C   0  0  0  0  0  0  0  0  0  0  0  0
    3.1364   -2.4738    0.8100 H   0  0  0  0  0  0  0  0  0  0  0  0
    5.6670   -1.2378    0.8179 H   0  0  0  0  0  0  0  0  0  0  0  0
    4.8420   -1.9058   -0.6413 H   0  0  0  0  0  0  0  0  0  0  0  0
    5.0790    0.2836   -1.4250 H   0  0  0  0  0  0  0  0  0  0  0  0
    5.1086    0.9625    0.2517 H   0  0  0  0  0  0  0  0  0  0  0  0
    2.7482    0.3145   -1.5439 H   0  0  0  0  0  0  0  0  0  0  0  0
    0.4314    0.3653   -1.2005 H   0  0  0  0  0  0  0  0  0  0  0  0
   -0.0183    1.1361    0.3601 H   0  0  0  0  0  0  0  0  0  0  0  0
   -1.1583   -1.2528   -0.9926 H   0  0  0  0  0  0  0  0  0  0  0  0
   -3.0786    1.8907   -1.9657 H   0  0  0  0  0  0  0  0  0  0  0  0
   -1.3792    2.0521   -1.4750 H   0  0  0  0  0  0  0  0  0  0  0  0
   -2.5560    0.2114   -3.2815 H   0  0  0  0  0  0  0  0  0  0  0  0
   -3.4263    2.0151    0.4641 H   0  0  0  0  0  0  0  0  0  0  0  0
   -1.9471    1.4935    1.3356 H   0  0  0  0  0  0  0  0  0  0  0  0
   -4.5120    0.7230    2.0373 H   0  0  0  0  0  0  0  0  0  0  0  0
   -3.0498   -0.2909    2.3628 H   0  0  0  0  0  0  0  0  0  0  0  0
   -3.7782   -1.8891    0.9051 H   0  0  0  0  0  0  0  0  0  0  0  0
   -5.2859   -0.9354    0.6020 H   0  0  0  0  0  0  0  0  0  0  0  0
   -4.4318    0.0534   -1.3088 H   0  0  0  0  0  0  0  0  0  0  0  0
   -3.4165   -1.4314   -1.3737 H   0  0  0  0  0  0  0  0  0  0  0  0
  1  2  3  0
  2  3  1  0
  3  4  1  0
  4  5  1  0
  5  6  1  0
  6  7  1  0
  7  8  3  0
  6  9  1  0
  9 10  1  0
 10 11  2  0
 10 12  1  0
 12 13  1  0
 13 14  1  0
 14 15  1  0
 15 16  1  0
 14 17  1  0
 17 18  1  0
 18 19  1  0
 19 20  1  0
  9  3  1  0
 20 14  1  0
  3 21  1  1
  4 22  1  0
  4 23  1  0
  5 24  1  0
  5 25  1  0
  6 26  1  6
 12 27  1  0
 12 28  1  0
 13 29  1  0
 15 30  1  0
 15 31  1  0
 16 32  1  0
 17 33  1  0
 17 34  1  0
 18 35  1  0
 18 36  1  0
 19 37  1  0
 19 38  1  0
 20 39  1  0
 20 40  1  0
M  END
$$$$
