
     RDKit          3D

 37 39  0  0  0  0  0  0  0  0999 V2000
   -3.0194    2.4569    0.0245 N   0  0  0  0  0  0  0  0  0  0  0  0
   -2.4300    1.6788   -1.0609 C   0  0  0  0  0  0  0  0  0  0  0  0
   -1.0254    1.2394   -0.6945 C   0  0  0  0  0  0  0  0  0  0  0  0
    0.0942    2.0742   -0.9317 C   0  0  0  0  0  0  0  0  0  0  0  0
   -0.0366    3.3991   -1.4616 N   0  0  0  0  0  0  0  0  0  0  0  0
    1.3427    1.6156   -0.6563 N   0  0  0  0  0  0  0  0  0  0  0  0
    1.5602    0.3771   -0.1461 C   0  0  0  0  0  0  0  0  0  0  0  0
    2.9412   -0.0896    0.1310 C   0  0  0  0  0  0  0  0  0  0  0  0
    4.0464    0.7443   -0.1293 C   0  0  0  0  0  0  0  0  0  0  0  0
    5.3465    0.3011    0.1326 C   0  0  0  0  0  0  0  0  0  0  0  0
    5.5602   -0.9757    0.6558 C   0  0  0  0  0  0  0  0  0  0  0  0
    4.4740   -1.8127    0.9183 C   0  0  0  0  0  0  0  0  0  0  0  0
    3.1714   -1.3755    0.6586 C   0  0  0  0  0  0  0  0  0  0  0  0
    0.4992   -0.4266    0.1164 N   0  0  0  0  0  0  0  0  0  0  0  0
   -0.7788   -0.0338   -0.1219 C   0  0  0  0  0  0  0  0  0  0  0  0
   -1.8592   -0.9818    0.2175 C   0  0  0  0  0  0  0  0  0  0  0  0
   -1.8759   -2.2584   -0.3665 C   0  0  0  0  0  0  0  0  0  0  0  0
   -2.8817   -3.1714   -0.0342 C   0  0  0  0  0  0  0  0  0  0  0  0
   -3.8674   -2.8211    0.8927 C   0  0  0  0  0  0  0  0  0  0  0  0
   -3.8445   -1.5598    1.4943 C   0  0  0  0  0  0  0  0  0  0  0  0
   -2.8404   -0.6442    1.1646 C   0  0  0  0  0  0  0  0  0  0  0  0
   -4.0032    2.6865   -0.2453 H   0  0  0  0  0  0  0  0  0  0  0  0
   -2.5114    3.3671    0.1002 H   0  0  0  0  0  0  0  0  0  0  0  0
   -2.4329    2.2645   -2.0047 H   0  0  0  0  0  0  0  0  0  0  0  0
   -3.0729    0.7974   -1.2698 H   0  0  0  0  0  0  0  0  0  0  0  0
    0.8214    3.9616   -1.6560 H   0  0  0  0  0  0  0  0  0  0  0  0
   -0.9558    3.8613   -1.6256 H   0  0  0  0  0  0  0  0  0  0  0  0
    3.9093    1.7387   -0.5349 H   0  0  0  0  0  0  0  0  0  0  0  0
    6.1895    0.9490   -0.0705 H   0  0  0  0  0  0  0  0  0  0  0  0
    6.5675   -1.3165    0.8577 H   0  0  0  0  0  0  0  0  0  0  0  0
    4.6410   -2.8024    1.3237 H   0  0  0  0  0  0  0  0  0  0  0  0
    2.3476   -2.0451    0.8710 H   0  0  0  0  0  0  0  0  0  0  0  0
   -1.1164   -2.5423   -1.0849 H   0  0  0  0  0  0  0  0  0  0  0  0
   -2.8957   -4.1513   -0.4937 H   0  0  0  0  0  0  0  0  0  0  0  0
   -4.6443   -3.5293    1.1501 H   0  0  0  0  0  0  0  0  0  0  0  0
   -4.6007   -1.2941    2.2216 H   0  0  0  0  0  0  0  0  0  0  0  0
   -2.8198    0.3189    1.6578 H   0  0  0  0  0  0  0  0  0  0  0  0
  1  2  1  0
  2  3  1  0
  3  4  2  0
  4  5  1  0
  4  6  1  0
  6  7  2  0
  7  8  1  0
  8  9  2  0
  9 10  1  0
 10 11  2  0
 11 12  1  0
 12 13  2  0
  7 14  1  0
 14 15  2  0
 15 16  1  0
 16 17  2  0
 17 18  1  0
 18 19  2  0
 19 20  1  0
 20 21  2  0
 15  3  1  0
 21 16  1  0
 13  8  1  0
  1 22  1  0
  1 23  1  0
  2 24  1  0
  2 25  1  0
  5 26  1  0
  5 27  1  0
  9 28  1  0
 10 29  1  0
 11 30  1  0
 12 31  1  0
 13 32  1  0
 17 33  1  0
 18 34  1  0
 19 35  1  0
 20 36  1  0
 21 37  1  0
M  END
$$$$
