
     RDKit          3D

 27 28  0  0  0  0  0  0  0  0999 V2000
   -3.8948    1.7094   -0.9206 O   0  0  0  0  0  0  0  0  0  0  0  0
   -2.9168    1.0275   -0.5089 C   0  0  0  0  0  0  0  0  0  0  0  0
   -1.6101    1.5629   -0.5068 C   0  0  0  0  0  0  0  0  0  0  0  0
   -1.3766    2.9111   -0.9444 N   0  0  0  0  0  0  0  0  0  0  0  0
   -1.9516    3.3522   -1.9608 O   0  0  0  0  0  0  0  0  0  0  0  0
   -0.6629    3.7791   -0.1507 O   0  0  0  0  0  0  0  0  0  0  0  0
   -0.5488    0.7477   -0.0256 C   0  0  0  0  0  0  0  0  0  0  0  0
    0.8165    1.2009   -0.0700 N   0  0  0  0  0  0  0  0  0  0  0  0
    1.9175    0.4356    0.5125 C   0  0  0  0  0  0  0  0  0  0  0  0
    2.3579   -0.6788   -0.4441 C   0  0  0  0  0  0  0  0  0  0  0  0
    3.5040   -1.5065    0.1388 C   0  0  0  0  0  0  0  0  0  0  0  0
    4.6510   -0.7138    0.2758 O   0  0  0  0  0  0  0  0  0  0  0  0
   -0.8215   -0.5057    0.4417 N   0  0  0  0  0  0  0  0  0  0  0  0
   -2.0911   -0.9703    0.4306 C   0  0  0  0  0  0  0  0  0  0  0  0
   -2.6050   -2.4781    0.9567 S   0  0  0  0  0  0  0  0  0  0  0  0
   -4.2042   -2.0930    0.5386 C   0  0  0  0  0  0  0  0  0  0  0  0
   -4.2932   -0.8444    0.0178 N   0  0  0  0  0  0  0  0  0  0  0  0
   -3.1127   -0.2314   -0.0389 N   0  0  0  0  0  0  0  0  0  0  0  0
    1.0637    2.0799   -0.5753 H   0  0  0  0  0  0  0  0  0  0  0  0
    2.7728    1.1215    0.6968 H   0  0  0  0  0  0  0  0  0  0  0  0
    1.6074    0.0113    1.4925 H   0  0  0  0  0  0  0  0  0  0  0  0
    2.6798   -0.2335   -1.4108 H   0  0  0  0  0  0  0  0  0  0  0  0
    1.5011   -1.3562   -0.6469 H   0  0  0  0  0  0  0  0  0  0  0  0
    3.7194   -2.3541   -0.5493 H   0  0  0  0  0  0  0  0  0  0  0  0
    3.2048   -1.9213    1.1277 H   0  0  0  0  0  0  0  0  0  0  0  0
    5.3487   -1.3045    0.6620 H   0  0  0  0  0  0  0  0  0  0  0  0
   -5.0555   -2.7476    0.6650 H   0  0  0  0  0  0  0  0  0  0  0  0
  1  2  2  0
  2  3  1  0
  3  4  1  0
  4  5  2  0
  4  6  1  0
  3  7  2  0
  7  8  1  0
  8  9  1  0
  9 10  1  0
 10 11  1  0
 11 12  1  0
  7 13  1  0
 13 14  2  0
 14 15  1  0
 15 16  1  0
 16 17  2  0
 17 18  1  0
 18  2  1  0
 18 14  1  0
  8 19  1  0
  9 20  1  0
  9 21  1  0
 10 22  1  0
 10 23  1  0
 11 24  1  0
 11 25  1  0
 12 26  1  0
 16 27  1  0
M  CHG  2   4   1   6  -1
M  END
$$$$
