
     RDKit          3D

 48 49  0  0  0  0  0  0  0  0999 V2000
    5.0114   -1.3830    1.4386 C   0  0  0  0  0  0  0  0  0  0  0  0
    4.7772   -0.0346    2.1166 C   0  0  0  0  0  0  0  0  0  0  0  0
    3.8602    0.8934    1.3022 C   0  0  0  0  0  0  0  0  0  0  0  0
    2.4000    0.3911    1.2033 C   0  0  0  0  0  0  0  0  0  0  0  0
    2.0487   -0.2515   -0.1674 C   0  0  1  0  0  0  0  0  0  0  0  0
    0.6864   -1.0044   -0.1064 C   0  0  0  0  0  0  0  0  0  0  0  0
   -0.3708   -0.3112   -0.8569 N   0  0  0  0  0  0  0  0  0  0  0  0
   -1.7114   -0.2732   -0.3339 C   0  0  0  0  0  0  0  0  0  0  0  0
   -2.4282    0.9318   -0.3162 C   0  0  0  0  0  0  0  0  0  0  0  0
   -3.7362    0.9798    0.1756 C   0  0  0  0  0  0  0  0  0  0  0  0
   -4.4071    2.2120    0.1575 O   0  0  0  0  0  0  0  0  0  0  0  0
   -5.7370    2.4122    0.6252 C   0  0  0  0  0  0  0  0  0  0  0  0
   -4.3320   -0.1969    0.6671 C   0  0  0  0  0  0  0  0  0  0  0  0
   -3.6170   -1.4068    0.6855 C   0  0  0  0  0  0  0  0  0  0  0  0
   -4.2769   -2.6748    1.1680 C   0  0  0  0  0  0  0  0  0  0  0  0
   -3.3359   -3.5558    1.6725 F   0  0  0  0  0  0  0  0  0  0  0  0
   -4.9350   -3.2754    0.1112 F   0  0  0  0  0  0  0  0  0  0  0  0
   -5.1907   -2.3992    2.1705 F   0  0  0  0  0  0  0  0  0  0  0  0
   -2.3144   -1.4399    0.1610 C   0  0  0  0  0  0  0  0  0  0  0  0
   -0.1418    0.0955   -2.2519 C   0  0  0  0  0  0  0  0  0  0  0  0
    1.3546    0.1736   -2.5816 C   0  0  0  0  0  0  0  0  0  0  0  0
    2.1511    0.7238   -1.3898 C   0  0  1  0  0  0  0  0  0  0  0  0
    1.7085    2.0932   -1.0924 N   0  0  0  0  0  0  0  0  0  0  0  0
    4.0796   -1.9859    1.4391 H   0  0  0  0  0  0  0  0  0  0  0  0
    5.3626   -1.2382    0.3947 H   0  0  0  0  0  0  0  0  0  0  0  0
    5.7869   -1.9475    1.9977 H   0  0  0  0  0  0  0  0  0  0  0  0
    5.7606    0.4680    2.2434 H   0  0  0  0  0  0  0  0  0  0  0  0
    4.3522   -0.1970    3.1310 H   0  0  0  0  0  0  0  0  0  0  0  0
    4.3091    1.0662    0.3025 H   0  0  0  0  0  0  0  0  0  0  0  0
    3.8508    1.8806    1.8137 H   0  0  0  0  0  0  0  0  0  0  0  0
    1.7039    1.2307    1.4116 H   0  0  0  0  0  0  0  0  0  0  0  0
    2.2158   -0.3461    2.0154 H   0  0  0  0  0  0  0  0  0  0  0  0
    2.8123   -1.0402   -0.3444 H   0  0  0  0  0  0  0  0  0  0  0  0
    0.3680   -1.1620    0.9477 H   0  0  0  0  0  0  0  0  0  0  0  0
    0.8110   -2.0183   -0.5468 H   0  0  0  0  0  0  0  0  0  0  0  0
   -1.9670    1.8423   -0.6769 H   0  0  0  0  0  0  0  0  0  0  0  0
   -5.8050    2.1570    1.7038 H   0  0  0  0  0  0  0  0  0  0  0  0
   -6.0103    3.4793    0.4948 H   0  0  0  0  0  0  0  0  0  0  0  0
   -6.4457    1.7898    0.0389 H   0  0  0  0  0  0  0  0  0  0  0  0
   -5.3492   -0.1776    1.0342 H   0  0  0  0  0  0  0  0  0  0  0  0
   -1.7700   -2.3753    0.1228 H   0  0  0  0  0  0  0  0  0  0  0  0
   -0.5897    1.0962   -2.4300 H   0  0  0  0  0  0  0  0  0  0  0  0
   -0.6385   -0.6254   -2.9362 H   0  0  0  0  0  0  0  0  0  0  0  0
    1.5069    0.8212   -3.4726 H   0  0  0  0  0  0  0  0  0  0  0  0
    1.7302   -0.8419   -2.8371 H   0  0  0  0  0  0  0  0  0  0  0  0
    3.2147    0.7700   -1.7144 H   0  0  0  0  0  0  0  0  0  0  0  0
    0.8149    2.0801   -0.5503 H   0  0  0  0  0  0  0  0  0  0  0  0
    2.4323    2.5746   -0.5122 H   0  0  0  0  0  0  0  0  0  0  0  0
  1  2  1  0
  2  3  1  0
  3  4  1  0
  4  5  1  0
  5  6  1  0
  6  7  1  0
  7  8  1  0
  8  9  2  0
  9 10  1  0
 10 11  1  0
 11 12  1  0
 10 13  2  0
 13 14  1  0
 14 15  1  0
 15 16  1  0
 15 17  1  0
 15 18  1  0
 14 19  2  0
  7 20  1  0
 20 21  1  0
 21 22  1  0
 22 23  1  0
 22  5  1  0
 19  8  1  0
  1 24  1  0
  1 25  1  0
  1 26  1  0
  2 27  1  0
  2 28  1  0
  3 29  1  0
  3 30  1  0
  4 31  1  0
  4 32  1  0
  5 33  1  6
  6 34  1  0
  6 35  1  0
  9 36  1  0
 12 37  1  0
 12 38  1  0
 12 39  1  0
 13 40  1  0
 19 41  1  0
 20 42  1  0
 20 43  1  0
 21 44  1  0
 21 45  1  0
 22 46  1  6
 23 47  1  0
 23 48  1  0
M  END
$$$$
