
     RDKit          3D

 35 34  0  0  0  0  0  0  0  0999 V2000
    3.3347   -2.1629   -0.0441 C   0  0  0  0  0  0  0  0  0  0  0  0
    3.6782   -0.7187    0.3206 C   0  0  0  0  0  0  0  0  0  0  0  0
    2.7297    0.3014   -0.3279 C   0  0  0  0  0  0  0  0  0  0  0  0
    1.3202    0.2729    0.2910 C   0  0  0  0  0  0  0  0  0  0  0  0
    0.3897    1.3415   -0.3146 C   0  0  1  0  0  0  0  0  0  0  0  0
   -0.9906    1.0789    0.1010 N   0  0  0  0  0  0  0  0  0  0  0  0
   -1.8655    0.2198   -0.6455 C   0  0  0  0  0  0  0  0  0  0  0  0
   -1.5072   -0.2251   -1.7707 O   0  0  0  0  0  0  0  0  0  0  0  0
   -3.1911   -0.1975   -0.0488 C   0  0  1  0  0  0  0  0  0  0  0  0
   -4.1686   -0.5780   -1.0744 N   0  0  0  0  0  0  0  0  0  0  0  0
   -3.0204   -1.3170    1.0017 C   0  0  0  0  0  0  0  0  0  0  0  0
   -2.4637   -2.5547    0.4523 N   0  0  0  0  0  0  0  0  0  0  0  0
    0.8082    2.8273    0.1275 B   0  0  0  0  0  0  0  0  0  0  0  0
    0.8502    3.1919    1.5422 O   0  0  0  0  0  0  0  0  0  0  0  0
    1.1823    3.8111   -0.8853 O   0  0  0  0  0  0  0  0  0  0  0  0
    4.1246   -2.8390    0.3458 H   0  0  0  0  0  0  0  0  0  0  0  0
    3.2799   -2.2836   -1.1469 H   0  0  0  0  0  0  0  0  0  0  0  0
    2.3687   -2.4653    0.4104 H   0  0  0  0  0  0  0  0  0  0  0  0
    3.6693   -0.6009    1.4260 H   0  0  0  0  0  0  0  0  0  0  0  0
    4.7117   -0.5087   -0.0307 H   0  0  0  0  0  0  0  0  0  0  0  0
    2.6667    0.1134   -1.4222 H   0  0  0  0  0  0  0  0  0  0  0  0
    3.1717    1.3110   -0.1857 H   0  0  0  0  0  0  0  0  0  0  0  0
    1.3844    0.4056    1.3940 H   0  0  0  0  0  0  0  0  0  0  0  0
    0.8684   -0.7238    0.0997 H   0  0  0  0  0  0  0  0  0  0  0  0
    0.4576    1.2999   -1.4238 H   0  0  0  0  0  0  0  0  0  0  0  0
   -1.2880    1.3605    1.0636 H   0  0  0  0  0  0  0  0  0  0  0  0
   -3.6029    0.6845    0.4907 H   0  0  0  0  0  0  0  0  0  0  0  0
   -3.7688   -1.3107   -1.7037 H   0  0  0  0  0  0  0  0  0  0  0  0
   -4.3675    0.2599   -1.6687 H   0  0  0  0  0  0  0  0  0  0  0  0
   -4.0082   -1.5387    1.4612 H   0  0  0  0  0  0  0  0  0  0  0  0
   -2.3558   -0.9575    1.8173 H   0  0  0  0  0  0  0  0  0  0  0  0
   -1.5537   -2.3560   -0.0216 H   0  0  0  0  0  0  0  0  0  0  0  0
   -3.1252   -2.9564   -0.2495 H   0  0  0  0  0  0  0  0  0  0  0  0
   -0.0527    3.5494    1.7369 H   0  0  0  0  0  0  0  0  0  0  0  0
    0.3336    4.2655   -1.1179 H   0  0  0  0  0  0  0  0  0  0  0  0
  1  2  1  0
  2  3  1  0
  3  4  1  0
  4  5  1  0
  5  6  1  0
  6  7  1  0
  7  8  2  0
  7  9  1  0
  9 10  1  0
  9 11  1  0
 11 12  1  0
  5 13  1  0
 13 14  1  0
 13 15  1  0
  1 16  1  0
  1 17  1  0
  1 18  1  0
  2 19  1  0
  2 20  1  0
  3 21  1  0
  3 22  1  0
  4 23  1  0
  4 24  1  0
  5 25  1  6
  6 26  1  0
  9 27  1  1
 10 28  1  0
 10 29  1  0
 11 30  1  0
 11 31  1  0
 12 32  1  0
 12 33  1  0
 14 34  1  0
 15 35  1  0
M  END
$$$$
