
     RDKit          3D

 27 28  0  0  0  0  0  0  0  0999 V2000
    0.3274    1.5988    1.5366 O   0  0  0  0  0  0  0  0  0  0  0  0
    0.1363    0.9060    0.4995 C   0  0  0  0  0  0  0  0  0  0  0  0
    1.3280    0.4053   -0.2795 C   0  0  0  0  0  0  0  0  0  0  0  0
    1.8508   -0.9048    0.2967 C   0  0  0  0  0  0  0  0  0  0  0  0
    3.2944   -1.0313   -0.1465 C   0  0  0  0  0  0  0  0  0  0  0  0
    3.9413    0.3290    0.0503 C   0  0  0  0  0  0  0  0  0  0  0  0
    2.6934    1.6176   -0.2640 S   0  0  0  0  0  0  0  0  0  0  0  0
   -1.2081    0.5434    0.1324 N   0  0  0  0  0  0  0  0  0  0  0  0
   -1.5620   -0.2427   -1.0380 C   0  0  0  0  0  0  0  0  0  0  0  0
   -3.0843   -0.2969   -1.0546 C   0  0  0  0  0  0  0  0  0  0  0  0
   -3.5368    0.1389    0.3363 C   0  0  0  0  0  0  0  0  0  0  0  0
   -2.3624    0.8964    0.9405 C   0  0  0  0  0  0  0  0  0  0  0  0
    1.0587    0.2499   -1.3447 H   0  0  0  0  0  0  0  0  0  0  0  0
    1.8147   -0.8872    1.4095 H   0  0  0  0  0  0  0  0  0  0  0  0
    1.2519   -1.7667   -0.0690 H   0  0  0  0  0  0  0  0  0  0  0  0
    3.8231   -1.8107    0.4435 H   0  0  0  0  0  0  0  0  0  0  0  0
    3.3291   -1.3083   -1.2234 H   0  0  0  0  0  0  0  0  0  0  0  0
    4.8035    0.4554   -0.6378 H   0  0  0  0  0  0  0  0  0  0  0  0
    4.2954    0.4290    1.0986 H   0  0  0  0  0  0  0  0  0  0  0  0
   -1.1372   -1.2655   -0.9457 H   0  0  0  0  0  0  0  0  0  0  0  0
   -1.1889    0.2460   -1.9637 H   0  0  0  0  0  0  0  0  0  0  0  0
   -3.4499   -1.3186   -1.2962 H   0  0  0  0  0  0  0  0  0  0  0  0
   -3.4757    0.4179   -1.8118 H   0  0  0  0  0  0  0  0  0  0  0  0
   -4.4460    0.7765    0.2845 H   0  0  0  0  0  0  0  0  0  0  0  0
   -3.7571   -0.7607    0.9524 H   0  0  0  0  0  0  0  0  0  0  0  0
   -2.5336    1.9934    0.8856 H   0  0  0  0  0  0  0  0  0  0  0  0
   -2.2061    0.5901    1.9979 H   0  0  0  0  0  0  0  0  0  0  0  0
  1  2  2  0
  2  3  1  0
  3  4  1  0
  4  5  1  0
  5  6  1  0
  6  7  1  0
  2  8  1  0
  8  9  1  0
  9 10  1  0
 10 11  1  0
 11 12  1  0
  7  3  1  0
 12  8  1  0
  3 13  1  0
  4 14  1  0
  4 15  1  0
  5 16  1  0
  5 17  1  0
  6 18  1  0
  6 19  1  0
  9 20  1  0
  9 21  1  0
 10 22  1  0
 10 23  1  0
 11 24  1  0
 11 25  1  0
 12 26  1  0
 12 27  1  0
M  END
$$$$
