
     RDKit          3D

 57 59  0  0  0  0  0  0  0  0999 V2000
   -0.8382    1.1565    1.5240 C   0  0  0  0  0  0  0  0  0  0  0  0
   -0.3887    1.0798    0.0618 C   0  0  2  0  0  0  0  0  0  0  0  0
   -1.4680    1.5543   -0.8763 C   0  0  0  0  0  0  0  0  0  0  0  0
   -1.2366    2.5430   -1.6230 O   0  0  0  0  0  0  0  0  0  0  0  0
   -2.7818    0.9811   -0.8762 N   0  0  0  0  0  0  0  0  0  0  0  0
   -3.1028   -0.4324   -1.1222 C   0  0  2  0  0  0  0  0  0  0  0  0
   -3.9779   -1.0015    0.0162 C   0  0  0  0  0  0  0  0  0  0  0  0
   -5.3323   -0.3373    0.0610 C   0  0  0  0  0  0  0  0  0  0  0  0
   -5.5608    0.7377    0.9378 C   0  0  0  0  0  0  0  0  0  0  0  0
   -6.8048    1.3747    0.9644 C   0  0  0  0  0  0  0  0  0  0  0  0
   -7.8280    0.9487    0.1141 C   0  0  0  0  0  0  0  0  0  0  0  0
   -7.6083   -0.1133   -0.7669 C   0  0  0  0  0  0  0  0  0  0  0  0
   -6.3655   -0.7547   -0.7992 C   0  0  0  0  0  0  0  0  0  0  0  0
   -6.1696   -1.7785   -1.6684 F   0  0  0  0  0  0  0  0  0  0  0  0
   -1.8691   -1.3144   -1.4230 C   0  0  0  0  0  0  0  0  0  0  0  0
   -0.8519   -1.4149   -0.2802 C   0  0  0  0  0  0  0  0  0  0  0  0
    0.0707   -0.2732   -0.2909 N   0  0  0  0  0  0  0  0  0  0  0  0
    1.4162   -0.4773   -0.7614 C   0  0  0  0  0  0  0  0  0  0  0  0
    1.6154   -1.1556   -1.8056 O   0  0  0  0  0  0  0  0  0  0  0  0
    2.5997    0.0417    0.0103 C   0  0  0  0  0  0  0  0  0  0  0  0
    3.4014   -1.1090    0.6644 C   0  0  2  0  0  0  0  0  0  0  0  0
    2.5788   -1.8479    1.6281 N   0  0  0  0  0  0  0  0  0  0  0  0
    4.6578   -0.5832    1.3869 C   0  0  0  0  0  0  0  0  0  0  0  0
    5.6780   -0.0178    0.4281 C   0  0  0  0  0  0  0  0  0  0  0  0
    5.7888    1.3729    0.2551 C   0  0  0  0  0  0  0  0  0  0  0  0
    6.7168    1.9012   -0.6475 C   0  0  0  0  0  0  0  0  0  0  0  0
    6.8143    3.2443   -0.8076 F   0  0  0  0  0  0  0  0  0  0  0  0
    7.5404    1.0461   -1.3857 C   0  0  0  0  0  0  0  0  0  0  0  0
    8.4403    1.5572   -2.2620 F   0  0  0  0  0  0  0  0  0  0  0  0
    7.4355   -0.3379   -1.2224 C   0  0  0  0  0  0  0  0  0  0  0  0
    6.5085   -0.8720   -0.3214 C   0  0  0  0  0  0  0  0  0  0  0  0
    6.4218   -2.2191   -0.1796 F   0  0  0  0  0  0  0  0  0  0  0  0
   -0.0369    0.7643    2.1856 H   0  0  0  0  0  0  0  0  0  0  0  0
   -1.7634    0.5731    1.6985 H   0  0  0  0  0  0  0  0  0  0  0  0
   -1.0367    2.2134    1.8026 H   0  0  0  0  0  0  0  0  0  0  0  0
    0.4575    1.7953   -0.0393 H   0  0  0  0  0  0  0  0  0  0  0  0
   -3.5731    1.6558   -0.9804 H   0  0  0  0  0  0  0  0  0  0  0  0
   -3.7131   -0.4692   -2.0527 H   0  0  0  0  0  0  0  0  0  0  0  0
   -3.4753   -0.8736    0.9961 H   0  0  0  0  0  0  0  0  0  0  0  0
   -4.1172   -2.0952   -0.1275 H   0  0  0  0  0  0  0  0  0  0  0  0
   -4.7743    1.0852    1.5965 H   0  0  0  0  0  0  0  0  0  0  0  0
   -6.9746    2.2009    1.6427 H   0  0  0  0  0  0  0  0  0  0  0  0
   -8.7903    1.4437    0.1354 H   0  0  0  0  0  0  0  0  0  0  0  0
   -8.4020   -0.4376   -1.4276 H   0  0  0  0  0  0  0  0  0  0  0  0
   -1.3618   -0.9409   -2.3398 H   0  0  0  0  0  0  0  0  0  0  0  0
   -2.2267   -2.3401   -1.6628 H   0  0  0  0  0  0  0  0  0  0  0  0
   -0.2803   -2.3607   -0.4099 H   0  0  0  0  0  0  0  0  0  0  0  0
   -1.3403   -1.5068    0.7084 H   0  0  0  0  0  0  0  0  0  0  0  0
    2.2786    0.7524    0.8000 H   0  0  0  0  0  0  0  0  0  0  0  0
    3.2454    0.5995   -0.7000 H   0  0  0  0  0  0  0  0  0  0  0  0
    3.7284   -1.8170   -0.1305 H   0  0  0  0  0  0  0  0  0  0  0  0
    2.0984   -1.1751    2.2697 H   0  0  0  0  0  0  0  0  0  0  0  0
    1.8405   -2.3809    1.1145 H   0  0  0  0  0  0  0  0  0  0  0  0
    4.3650    0.1824    2.1393 H   0  0  0  0  0  0  0  0  0  0  0  0
    5.1275   -1.4163    1.9547 H   0  0  0  0  0  0  0  0  0  0  0  0
    5.1518    2.0467    0.8149 H   0  0  0  0  0  0  0  0  0  0  0  0
    8.0731   -0.9985   -1.7959 H   0  0  0  0  0  0  0  0  0  0  0  0
  1  2  1  0
  2  3  1  0
  3  4  2  0
  3  5  1  0
  5  6  1  0
  6  7  1  0
  7  8  1  0
  8  9  2  0
  9 10  1  0
 10 11  2  0
 11 12  1  0
 12 13  2  0
 13 14  1  0
  6 15  1  0
 15 16  1  0
 16 17  1  0
 17 18  1  0
 18 19  2  0
 18 20  1  0
 20 21  1  0
 21 22  1  0
 21 23  1  0
 23 24  1  0
 24 25  2  0
 25 26  1  0
 26 27  1  0
 26 28  2  0
 28 29  1  0
 28 30  1  0
 30 31  2  0
 31 32  1  0
 17  2  1  0
 31 24  1  0
 13  8  1  0
  1 33  1  0
  1 34  1  0
  1 35  1  0
  2 36  1  1
  5 37  1  0
  6 38  1  6
  7 39  1  0
  7 40  1  0
  9 41  1  0
 10 42  1  0
 11 43  1  0
 12 44  1  0
 15 45  1  0
 15 46  1  0
 16 47  1  0
 16 48  1  0
 20 49  1  0
 20 50  1  0
 21 51  1  6
 22 52  1  0
 22 53  1  0
 23 54  1  0
 23 55  1  0
 25 56  1  0
 30 57  1  0
M  END
$$$$
