
     RDKit          3D

 86 91  0  0  0  0  0  0  0  0999 V2000
    2.2818   -1.8745    2.1575 C   0  0  0  0  0  0  0  0  0  0  0  0
    3.1814   -0.6529    2.3269 C   0  0  0  0  0  0  0  0  0  0  0  0
    2.5173    0.6497    1.8526 C   0  0  0  0  0  0  0  0  0  0  0  0
    2.0845    0.5659    0.4240 N   0  0  0  0  0  0  0  0  0  0  0  0
    3.0498    1.3108   -0.4620 C   0  0  0  0  0  0  0  0  0  0  0  0
    4.4157    0.6494   -0.4501 C   0  0  0  0  0  0  0  0  0  0  0  0
    5.5521    1.3708   -0.0517 C   0  0  0  0  0  0  0  0  0  0  0  0
    6.8086    0.7599   -0.0347 C   0  0  0  0  0  0  0  0  0  0  0  0
    6.9554   -0.5853   -0.4209 C   0  0  0  0  0  0  0  0  0  0  0  0
    8.3124   -1.2632   -0.3991 C   0  0  0  0  0  0  0  0  0  0  0  0
    9.2900   -0.5757   -1.3596 C   0  0  0  0  0  0  0  0  0  0  0  0
    8.8805   -1.3140    1.0241 C   0  0  0  0  0  0  0  0  0  0  0  0
    5.8179   -1.3036   -0.8261 C   0  0  0  0  0  0  0  0  0  0  0  0
    4.5618   -0.6927   -0.8428 C   0  0  0  0  0  0  0  0  0  0  0  0
    2.5930    1.4593   -1.9532 C   0  0  0  0  0  0  0  0  0  0  0  0
    1.1204    1.7115   -2.0903 C   0  0  0  0  0  0  0  0  0  0  0  0
    0.6729    2.3820   -3.0074 O   0  0  0  0  0  0  0  0  0  0  0  0
    0.2514    0.9182   -1.1808 C   0  0  1  0  0  0  0  0  0  0  0  0
    0.7286    1.1491    0.2525 C   0  0  0  0  0  0  0  0  0  0  0  0
   -0.4183    0.5606    1.1207 C   0  0  0  0  0  0  0  0  0  0  0  0
   -1.5526    0.2579    0.1264 C   0  0  1  0  0  0  0  0  0  0  0  0
   -3.0230    0.3341    0.5810 C   0  0  2  0  0  0  0  0  0  0  0  0
   -3.2444   -0.5308    1.8281 C   0  0  0  0  0  0  0  0  0  0  0  0
   -4.6985   -0.7292    2.1437 C   0  0  0  0  0  0  0  0  0  0  0  0
   -5.6821   -0.6903    1.2177 C   0  0  0  0  0  0  0  0  0  0  0  0
   -7.0807   -1.0790    1.6736 C   0  0  0  0  0  0  0  0  0  0  0  0
   -8.0325   -1.4490    0.5188 C   0  0  1  0  0  0  0  0  0  0  0  0
   -8.7815   -0.3375    0.0999 O   0  0  0  0  0  0  0  0  0  0  0  0
   -7.2498   -2.0216   -0.6615 C   0  0  0  0  0  0  0  0  0  0  0  0
   -6.2726   -0.9940   -1.2563 C   0  0  0  0  0  0  0  0  0  0  0  0
   -5.4551   -0.1471   -0.2065 C   0  0  1  0  0  0  0  0  0  0  0  0
   -5.9795    1.3172   -0.2091 C   0  0  0  0  0  0  0  0  0  0  0  0
   -3.9224   -0.1936   -0.5830 C   0  0  1  0  0  0  0  0  0  0  0  0
   -3.5863    0.4725   -1.9648 C   0  0  0  0  0  0  0  0  0  0  0  0
   -2.0711    0.5246   -2.2868 C   0  0  0  0  0  0  0  0  0  0  0  0
   -1.2729    1.1271   -1.1101 C   0  0  2  0  0  0  0  0  0  0  0  0
   -1.6392    2.6364   -0.9151 C   0  0  0  0  0  0  0  0  0  0  0  0
    2.8320   -2.7841    2.4778 H   0  0  0  0  0  0  0  0  0  0  0  0
    1.3760   -1.7753    2.7912 H   0  0  0  0  0  0  0  0  0  0  0  0
    1.9850   -2.0013    1.0950 H   0  0  0  0  0  0  0  0  0  0  0  0
    4.1361   -0.8231    1.7935 H   0  0  0  0  0  0  0  0  0  0  0  0
    3.4340   -0.5491    3.4044 H   0  0  0  0  0  0  0  0  0  0  0  0
    3.2330    1.4853    2.0223 H   0  0  0  0  0  0  0  0  0  0  0  0
    1.6770    0.8644    2.5467 H   0  0  0  0  0  0  0  0  0  0  0  0
    3.1464    2.3550   -0.0802 H   0  0  0  0  0  0  0  0  0  0  0  0
    5.4672    2.4066    0.2524 H   0  0  0  0  0  0  0  0  0  0  0  0
    7.6660    1.3388    0.2827 H   0  0  0  0  0  0  0  0  0  0  0  0
    8.2057   -2.3162   -0.7439 H   0  0  0  0  0  0  0  0  0  0  0  0
    8.8596   -0.5456   -2.3835 H   0  0  0  0  0  0  0  0  0  0  0  0
   10.2441   -1.1433   -1.4011 H   0  0  0  0  0  0  0  0  0  0  0  0
    9.5116    0.4622   -1.0321 H   0  0  0  0  0  0  0  0  0  0  0  0
    8.1582   -1.8143    1.7043 H   0  0  0  0  0  0  0  0  0  0  0  0
    9.8271   -1.8954    1.0349 H   0  0  0  0  0  0  0  0  0  0  0  0
    9.0890   -0.2934    1.4094 H   0  0  0  0  0  0  0  0  0  0  0  0
    5.8994   -2.3410   -1.1256 H   0  0  0  0  0  0  0  0  0  0  0  0
    3.6975   -1.2715   -1.1445 H   0  0  0  0  0  0  0  0  0  0  0  0
    2.8163    0.5358   -2.5289 H   0  0  0  0  0  0  0  0  0  0  0  0
    3.1596    2.2907   -2.4276 H   0  0  0  0  0  0  0  0  0  0  0  0
    0.4437   -0.1496   -1.4493 H   0  0  0  0  0  0  0  0  0  0  0  0
    0.7875    2.2422    0.4685 H   0  0  0  0  0  0  0  0  0  0  0  0
   -0.1163   -0.3727    1.6373 H   0  0  0  0  0  0  0  0  0  0  0  0
   -0.7504    1.3073    1.8747 H   0  0  0  0  0  0  0  0  0  0  0  0
   -1.3871   -0.8118   -0.1604 H   0  0  0  0  0  0  0  0  0  0  0  0
   -3.2743    1.3792    0.8471 H   0  0  0  0  0  0  0  0  0  0  0  0
   -2.7884   -1.5352    1.6873 H   0  0  0  0  0  0  0  0  0  0  0  0
   -2.7538   -0.0537    2.7035 H   0  0  0  0  0  0  0  0  0  0  0  0
   -4.9302   -1.0686    3.1502 H   0  0  0  0  0  0  0  0  0  0  0  0
   -7.5115   -0.2583    2.2870 H   0  0  0  0  0  0  0  0  0  0  0  0
   -7.0013   -1.9724    2.3330 H   0  0  0  0  0  0  0  0  0  0  0  0
   -8.7326   -2.2419    0.8738 H   0  0  0  0  0  0  0  0  0  0  0  0
   -9.4662   -0.1720    0.7997 H   0  0  0  0  0  0  0  0  0  0  0  0
   -7.9583   -2.3560   -1.4506 H   0  0  0  0  0  0  0  0  0  0  0  0
   -6.6821   -2.9172   -0.3233 H   0  0  0  0  0  0  0  0  0  0  0  0
   -5.5980   -1.5731   -1.9221 H   0  0  0  0  0  0  0  0  0  0  0  0
   -6.8454   -0.3275   -1.9382 H   0  0  0  0  0  0  0  0  0  0  0  0
   -5.3551    1.9809    0.4203 H   0  0  0  0  0  0  0  0  0  0  0  0
   -7.0081    1.3782    0.1966 H   0  0  0  0  0  0  0  0  0  0  0  0
   -6.0231    1.7414   -1.2326 H   0  0  0  0  0  0  0  0  0  0  0  0
   -3.6613   -1.2713   -0.7046 H   0  0  0  0  0  0  0  0  0  0  0  0
   -4.0814   -0.0916   -2.7821 H   0  0  0  0  0  0  0  0  0  0  0  0
   -3.9881    1.4999   -2.0228 H   0  0  0  0  0  0  0  0  0  0  0  0
   -1.9085    1.1303   -3.2046 H   0  0  0  0  0  0  0  0  0  0  0  0
   -1.7170   -0.5068   -2.5072 H   0  0  0  0  0  0  0  0  0  0  0  0
   -1.1791    3.0750   -0.0092 H   0  0  0  0  0  0  0  0  0  0  0  0
   -1.3211    3.2348   -1.7916 H   0  0  0  0  0  0  0  0  0  0  0  0
   -2.7264    2.8020   -0.8032 H   0  0  0  0  0  0  0  0  0  0  0  0
  1  2  1  0
  2  3  1  0
  3  4  1  0
  4  5  1  0
  5  6  1  0
  6  7  2  0
  7  8  1  0
  8  9  2  0
  9 10  1  0
 10 11  1  0
 10 12  1  0
  9 13  1  0
 13 14  2  0
  5 15  1  0
 15 16  1  0
 16 17  2  0
 16 18  1  0
 18 19  1  0
 19 20  1  0
 20 21  1  0
 21 22  1  0
 22 23  1  0
 23 24  1  0
 24 25  2  0
 25 26  1  0
 26 27  1  0
 27 28  1  0
 27 29  1  0
 29 30  1  0
 30 31  1  0
 31 32  1  1
 31 33  1  0
 33 34  1  0
 34 35  1  0
 35 36  1  0
 36 37  1  1
 19  4  1  0
 36 21  1  0
 14  6  1  0
 36 18  1  0
 33 22  1  0
 31 25  1  0
  1 38  1  0
  1 39  1  0
  1 40  1  0
  2 41  1  0
  2 42  1  0
  3 43  1  0
  3 44  1  0
  5 45  1  0
  7 46  1  0
  8 47  1  0
 10 48  1  0
 11 49  1  0
 11 50  1  0
 11 51  1  0
 12 52  1  0
 12 53  1  0
 12 54  1  0
 13 55  1  0
 14 56  1  0
 15 57  1  0
 15 58  1  0
 18 59  1  6
 19 60  1  0
 20 61  1  0
 20 62  1  0
 21 63  1  6
 22 64  1  1
 23 65  1  0
 23 66  1  0
 24 67  1  0
 26 68  1  0
 26 69  1  0
 27 70  1  1
 28 71  1  0
 29 72  1  0
 29 73  1  0
 30 74  1  0
 30 75  1  0
 32 76  1  0
 32 77  1  0
 32 78  1  0
 33 79  1  6
 34 80  1  0
 34 81  1  0
 35 82  1  0
 35 83  1  0
 37 84  1  0
 37 85  1  0
 37 86  1  0
M  END
$$$$
