
     RDKit          3D

 45 48  0  0  0  0  0  0  0  0999 V2000
   -2.2852    0.1645    3.3449 N   0  0  0  0  0  0  0  0  0  0  0  0
   -2.2639    0.5198    1.9225 C   0  0  1  0  0  0  0  0  0  0  0  0
   -0.8351    0.4336    1.3789 C   0  0  0  0  0  0  0  0  0  0  0  0
   -0.7865   -0.7710    0.5637 N   0  0  0  0  0  0  0  0  0  0  0  0
    0.4085   -1.2912   -0.0516 C   0  0  0  0  0  0  0  0  0  0  0  0
    1.6269   -0.5956    0.0109 C   0  0  0  0  0  0  0  0  0  0  0  0
    2.7606   -1.1494   -0.6067 C   0  0  0  0  0  0  0  0  0  0  0  0
    4.0784   -0.4641   -0.5797 C   0  0  0  0  0  0  0  0  0  0  0  0
    4.9905   -0.6587   -1.6338 C   0  0  0  0  0  0  0  0  0  0  0  0
    6.2373   -0.0264   -1.6212 C   0  0  0  0  0  0  0  0  0  0  0  0
    6.5962    0.8014   -0.5545 C   0  0  0  0  0  0  0  0  0  0  0  0
    7.8419    1.4249   -0.5558 O   0  0  0  0  0  0  0  0  0  0  0  0
    5.7022    0.9934    0.5059 C   0  0  0  0  0  0  0  0  0  0  0  0
    4.4538    0.3639    0.4969 C   0  0  0  0  0  0  0  0  0  0  0  0
    2.6403   -2.3358   -1.2626 N   0  0  0  0  0  0  0  0  0  0  0  0
    1.4569   -2.9969   -1.3192 C   0  0  0  0  0  0  0  0  0  0  0  0
    0.3581   -2.4766   -0.7176 N   0  0  0  0  0  0  0  0  0  0  0  0
   -2.0797   -1.4222    0.4324 C   0  0  0  0  0  0  0  0  0  0  0  0
   -3.0974   -0.4763    1.0813 C   0  0  2  0  0  0  0  0  0  0  0  0
   -3.9479    0.2462    0.0477 C   0  0  0  0  0  0  0  0  0  0  0  0
   -3.3575    0.9768   -1.0031 C   0  0  0  0  0  0  0  0  0  0  0  0
   -4.1551    1.6509   -1.9323 C   0  0  0  0  0  0  0  0  0  0  0  0
   -5.5466    1.6099   -1.8218 C   0  0  0  0  0  0  0  0  0  0  0  0
   -6.1435    0.8960   -0.7803 C   0  0  0  0  0  0  0  0  0  0  0  0
   -5.3506    0.2197    0.1519 C   0  0  0  0  0  0  0  0  0  0  0  0
   -2.0166   -0.8409    3.4586 H   0  0  0  0  0  0  0  0  0  0  0  0
   -3.2639    0.2703    3.6986 H   0  0  0  0  0  0  0  0  0  0  0  0
   -2.6407    1.5630    1.8177 H   0  0  0  0  0  0  0  0  0  0  0  0
   -0.0890    0.3732    2.2017 H   0  0  0  0  0  0  0  0  0  0  0  0
   -0.6107    1.3191    0.7456 H   0  0  0  0  0  0  0  0  0  0  0  0
    1.6838    0.3655    0.5014 H   0  0  0  0  0  0  0  0  0  0  0  0
    4.7346   -1.2904   -2.4755 H   0  0  0  0  0  0  0  0  0  0  0  0
    6.9255   -0.1801   -2.4427 H   0  0  0  0  0  0  0  0  0  0  0  0
    8.1318    2.0303    0.2034 H   0  0  0  0  0  0  0  0  0  0  0  0
    5.9761    1.6252    1.3413 H   0  0  0  0  0  0  0  0  0  0  0  0
    3.7978    0.5089    1.3449 H   0  0  0  0  0  0  0  0  0  0  0  0
    1.3895   -3.9394   -1.8448 H   0  0  0  0  0  0  0  0  0  0  0  0
   -2.0553   -2.3923    0.9753 H   0  0  0  0  0  0  0  0  0  0  0  0
   -2.3104   -1.6180   -0.6382 H   0  0  0  0  0  0  0  0  0  0  0  0
   -3.7622   -1.0791    1.7412 H   0  0  0  0  0  0  0  0  0  0  0  0
   -2.2816    1.0231   -1.1066 H   0  0  0  0  0  0  0  0  0  0  0  0
   -3.6935    2.2067   -2.7383 H   0  0  0  0  0  0  0  0  0  0  0  0
   -6.1624    2.1330   -2.5419 H   0  0  0  0  0  0  0  0  0  0  0  0
   -7.2220    0.8681   -0.6936 H   0  0  0  0  0  0  0  0  0  0  0  0
   -5.8332   -0.3231    0.9551 H   0  0  0  0  0  0  0  0  0  0  0  0
  1  2  1  0
  2  3  1  0
  3  4  1  0
  4  5  1  0
  5  6  2  0
  6  7  1  0
  7  8  1  0
  8  9  2  0
  9 10  1  0
 10 11  2  0
 11 12  1  0
 11 13  1  0
 13 14  2  0
  7 15  2  0
 15 16  1  0
 16 17  2  0
  4 18  1  0
 18 19  1  0
 19 20  1  0
 20 21  2  0
 21 22  1  0
 22 23  2  0
 23 24  1  0
 24 25  2  0
 19  2  1  0
 25 20  1  0
 17  5  1  0
 14  8  1  0
  1 26  1  0
  1 27  1  0
  2 28  1  1
  3 29  1  0
  3 30  1  0
  6 31  1  0
  9 32  1  0
 10 33  1  0
 12 34  1  0
 13 35  1  0
 14 36  1  0
 16 37  1  0
 18 38  1  0
 18 39  1  0
 19 40  1  1
 21 41  1  0
 22 42  1  0
 23 43  1  0
 24 44  1  0
 25 45  1  0
M  END
$$$$
