
     RDKit          3D

 43 45  0  0  0  0  0  0  0  0999 V2000
    4.7250    0.6900    3.8599 C   0  0  0  0  0  0  0  0  0  0  0  0
    3.6464    0.3832    2.9824 O   0  0  0  0  0  0  0  0  0  0  0  0
    3.7508    0.3348    1.5840 C   0  0  0  0  0  0  0  0  0  0  0  0
    4.9592    0.5887    0.9112 C   0  0  0  0  0  0  0  0  0  0  0  0
    5.0201    0.5108   -0.4805 C   0  0  0  0  0  0  0  0  0  0  0  0
    3.8783    0.1910   -1.2204 C   0  0  0  0  0  0  0  0  0  0  0  0
    3.9649    0.0923   -2.5729 N   0  0  0  0  0  0  0  0  0  0  0  0
    2.8920   -0.2286   -3.3379 C   0  0  0  0  0  0  0  0  0  0  0  0
    1.6514   -0.4577   -2.7456 C   0  0  0  0  0  0  0  0  0  0  0  0
    1.5057   -0.3540   -1.3536 C   0  0  0  0  0  0  0  0  0  0  0  0
    0.1548   -0.5416   -0.7774 C   0  0  0  0  0  0  0  0  0  0  0  0
   -0.2921    0.2932    0.0555 O   0  0  0  0  0  0  0  0  0  0  0  0
   -0.6642   -1.6427   -1.1994 N   0  0  0  0  0  0  0  0  0  0  0  0
   -2.0375   -1.8176   -0.7339 C   0  0  0  0  0  0  0  0  0  0  0  0
   -2.9267   -0.7715   -1.3488 C   0  0  0  0  0  0  0  0  0  0  0  0
   -3.0537   -0.7565   -2.6033 O   0  0  0  0  0  0  0  0  0  0  0  0
   -3.6034    0.2260   -0.5572 N   0  0  0  0  0  0  0  0  0  0  0  0
   -4.1200    1.4501   -1.1459 C   0  0  0  0  0  0  0  0  0  0  0  0
   -4.4475    2.3658    0.0245 C   0  0  0  0  0  0  0  0  0  0  0  0
   -4.5516    1.4586    1.2465 C   0  0  0  0  0  0  0  0  0  0  0  0
   -3.7716    0.1900    0.8907 C   0  0  1  0  0  0  0  0  0  0  0  0
   -4.5132   -1.0150    1.3010 C   0  0  0  0  0  0  0  0  0  0  0  0
   -5.0950   -1.9622    1.6226 N   0  0  0  0  0  0  0  0  0  0  0  0
    2.6432   -0.0401   -0.5649 C   0  0  0  0  0  0  0  0  0  0  0  0
    2.6046    0.0176    0.8445 C   0  0  0  0  0  0  0  0  0  0  0  0
    5.5373   -0.0581    3.7426 H   0  0  0  0  0  0  0  0  0  0  0  0
    4.3608    0.6575    4.9071 H   0  0  0  0  0  0  0  0  0  0  0  0
    5.1106    1.7099    3.6491 H   0  0  0  0  0  0  0  0  0  0  0  0
    5.8602    0.8367    1.4554 H   0  0  0  0  0  0  0  0  0  0  0  0
    5.9615    0.6941   -0.9840 H   0  0  0  0  0  0  0  0  0  0  0  0
    3.0002   -0.2975   -4.4121 H   0  0  0  0  0  0  0  0  0  0  0  0
    0.8015   -0.6884   -3.3765 H   0  0  0  0  0  0  0  0  0  0  0  0
   -0.2606   -2.3652   -1.8376 H   0  0  0  0  0  0  0  0  0  0  0  0
   -2.0530   -1.7940    0.3735 H   0  0  0  0  0  0  0  0  0  0  0  0
   -2.4062   -2.8183   -1.0459 H   0  0  0  0  0  0  0  0  0  0  0  0
   -3.3555    1.9209   -1.8020 H   0  0  0  0  0  0  0  0  0  0  0  0
   -5.0351    1.2223   -1.7343 H   0  0  0  0  0  0  0  0  0  0  0  0
   -5.3930    2.9238   -0.1503 H   0  0  0  0  0  0  0  0  0  0  0  0
   -3.6175    3.0915    0.1727 H   0  0  0  0  0  0  0  0  0  0  0  0
   -4.1243    1.9526    2.1464 H   0  0  0  0  0  0  0  0  0  0  0  0
   -5.6274    1.2409    1.4375 H   0  0  0  0  0  0  0  0  0  0  0  0
   -2.7773    0.2089    1.3863 H   0  0  0  0  0  0  0  0  0  0  0  0
    1.6981   -0.2009    1.3908 H   0  0  0  0  0  0  0  0  0  0  0  0
  1  2  1  0
  2  3  1  0
  3  4  2  0
  4  5  1  0
  5  6  2  0
  6  7  1  0
  7  8  2  0
  8  9  1  0
  9 10  2  0
 10 11  1  0
 11 12  2  0
 11 13  1  0
 13 14  1  0
 14 15  1  0
 15 16  2  0
 15 17  1  0
 17 18  1  0
 18 19  1  0
 19 20  1  0
 20 21  1  0
 21 22  1  0
 22 23  3  0
 10 24  1  0
 24 25  2  0
 25  3  1  0
 24  6  1  0
 21 17  1  0
  1 26  1  0
  1 27  1  0
  1 28  1  0
  4 29  1  0
  5 30  1  0
  8 31  1  0
  9 32  1  0
 13 33  1  0
 14 34  1  0
 14 35  1  0
 18 36  1  0
 18 37  1  0
 19 38  1  0
 19 39  1  0
 20 40  1  0
 20 41  1  0
 21 42  1  1
 25 43  1  0
M  END
$$$$
