
     RDKit          3D

 44 47  0  0  0  0  0  0  0  0999 V2000
   -2.1523   -2.7315    1.2435 N   0  0  0  0  0  0  0  0  0  0  0  0
   -1.8961   -1.3196    0.9472 C   0  0  1  0  0  0  0  0  0  0  0  0
   -0.4204   -1.0449    0.6400 C   0  0  0  0  0  0  0  0  0  0  0  0
   -0.4218   -0.0729   -0.4443 N   0  0  0  0  0  0  0  0  0  0  0  0
    0.7545    0.5855   -0.9540 C   0  0  0  0  0  0  0  0  0  0  0  0
    2.0374    0.2611   -0.4838 C   0  0  0  0  0  0  0  0  0  0  0  0
    3.1494    0.9330   -1.0183 C   0  0  0  0  0  0  0  0  0  0  0  0
    4.5328    0.6399   -0.5630 C   0  0  0  0  0  0  0  0  0  0  0  0
    4.9003   -0.6419   -0.1069 C   0  0  0  0  0  0  0  0  0  0  0  0
    6.2102   -0.8978    0.3098 C   0  0  0  0  0  0  0  0  0  0  0  0
    7.1705    0.1166    0.2716 C   0  0  0  0  0  0  0  0  0  0  0  0
    8.8131   -0.2082    0.7944 Cl  0  0  0  0  0  0  0  0  0  0  0  0
    6.8214    1.3886   -0.1896 C   0  0  0  0  0  0  0  0  0  0  0  0
    5.5132    1.6491   -0.6083 C   0  0  0  0  0  0  0  0  0  0  0  0
    2.9488    1.8893   -1.9655 N   0  0  0  0  0  0  0  0  0  0  0  0
    1.7045    2.1939   -2.4121 C   0  0  0  0  0  0  0  0  0  0  0  0
    0.6243    1.5444   -1.9104 N   0  0  0  0  0  0  0  0  0  0  0  0
   -1.7525    0.1770   -0.9766 C   0  0  0  0  0  0  0  0  0  0  0  0
   -2.6617   -0.8565   -0.3051 C   0  0  2  0  0  0  0  0  0  0  0  0
   -4.0499   -0.3251    0.0057 C   0  0  0  0  0  0  0  0  0  0  0  0
   -4.2349    0.8001    0.8340 C   0  0  0  0  0  0  0  0  0  0  0  0
   -5.5216    1.2700    1.1132 C   0  0  0  0  0  0  0  0  0  0  0  0
   -6.6359    0.6242    0.5733 C   0  0  0  0  0  0  0  0  0  0  0  0
   -6.4658   -0.4937   -0.2465 C   0  0  0  0  0  0  0  0  0  0  0  0
   -5.1812   -0.9680   -0.5292 C   0  0  0  0  0  0  0  0  0  0  0  0
   -1.7976   -3.3273    0.4597 H   0  0  0  0  0  0  0  0  0  0  0  0
   -1.6088   -2.9908    2.0987 H   0  0  0  0  0  0  0  0  0  0  0  0
   -2.1887   -0.7082    1.8298 H   0  0  0  0  0  0  0  0  0  0  0  0
    0.0830   -0.6236    1.5374 H   0  0  0  0  0  0  0  0  0  0  0  0
    0.1110   -1.9633    0.3082 H   0  0  0  0  0  0  0  0  0  0  0  0
    2.1647   -0.4798    0.2923 H   0  0  0  0  0  0  0  0  0  0  0  0
    4.1874   -1.4555   -0.0933 H   0  0  0  0  0  0  0  0  0  0  0  0
    6.4790   -1.8877    0.6560 H   0  0  0  0  0  0  0  0  0  0  0  0
    7.5625    2.1770   -0.2240 H   0  0  0  0  0  0  0  0  0  0  0  0
    5.2651    2.6443   -0.9557 H   0  0  0  0  0  0  0  0  0  0  0  0
    1.5735    2.9551   -3.1686 H   0  0  0  0  0  0  0  0  0  0  0  0
   -1.7590    0.0359   -2.0798 H   0  0  0  0  0  0  0  0  0  0  0  0
   -2.0473    1.2223   -0.7430 H   0  0  0  0  0  0  0  0  0  0  0  0
   -2.7387   -1.7183   -1.0076 H   0  0  0  0  0  0  0  0  0  0  0  0
   -3.3849    1.3141    1.2646 H   0  0  0  0  0  0  0  0  0  0  0  0
   -5.6546    2.1353    1.7496 H   0  0  0  0  0  0  0  0  0  0  0  0
   -7.6313    0.9894    0.7909 H   0  0  0  0  0  0  0  0  0  0  0  0
   -7.3304   -0.9942   -0.6631 H   0  0  0  0  0  0  0  0  0  0  0  0
   -5.0716   -1.8374   -1.1653 H   0  0  0  0  0  0  0  0  0  0  0  0
  1  2  1  0
  2  3  1  0
  3  4  1  0
  4  5  1  0
  5  6  2  0
  6  7  1  0
  7  8  1  0
  8  9  2  0
  9 10  1  0
 10 11  2  0
 11 12  1  0
 11 13  1  0
 13 14  2  0
  7 15  2  0
 15 16  1  0
 16 17  2  0
  4 18  1  0
 18 19  1  0
 19 20  1  0
 20 21  2  0
 21 22  1  0
 22 23  2  0
 23 24  1  0
 24 25  2  0
 19  2  1  0
 25 20  1  0
 17  5  1  0
 14  8  1  0
  1 26  1  0
  1 27  1  0
  2 28  1  1
  3 29  1  0
  3 30  1  0
  6 31  1  0
  9 32  1  0
 10 33  1  0
 13 34  1  0
 14 35  1  0
 16 36  1  0
 18 37  1  0
 18 38  1  0
 19 39  1  6
 21 40  1  0
 22 41  1  0
 23 42  1  0
 24 43  1  0
 25 44  1  0
M  END
$$$$
