
     RDKit          3D

 69 71  0  0  0  0  0  0  0  0999 V2000
    8.3201   -2.4592    2.0663 C   0  0  0  0  0  0  0  0  0  0  0  0
    7.2953   -1.9286    1.1175 C   0  0  0  0  0  0  0  0  0  0  0  0
    7.6713   -1.3671    0.0533 O   0  0  0  0  0  0  0  0  0  0  0  0
    5.9001   -2.1458    1.3783 N   0  0  0  0  0  0  0  0  0  0  0  0
    4.8341   -1.5272    0.6372 C   0  0  0  0  0  0  0  0  0  0  0  0
    4.9526   -0.2216    0.1303 C   0  0  0  0  0  0  0  0  0  0  0  0
    3.8915    0.3642   -0.5656 C   0  0  0  0  0  0  0  0  0  0  0  0
    2.6917   -0.3302   -0.7544 C   0  0  0  0  0  0  0  0  0  0  0  0
    1.6631    0.3137   -1.4559 O   0  0  0  0  0  0  0  0  0  0  0  0
    0.0767   -0.3192   -1.6724 P   0  0  0  0  0  0  0  0  0  0  0  0
    0.1429   -1.5523   -2.5456 O   0  0  0  0  0  0  0  0  0  0  0  0
   -0.5730   -0.7193   -0.1270 O   0  0  0  0  0  0  0  0  0  0  0  0
   -1.8252   -1.3088    0.0981 C   0  0  0  0  0  0  0  0  0  0  0  0
   -2.6624   -1.7578   -0.9409 C   0  0  0  0  0  0  0  0  0  0  0  0
   -3.9071   -2.3243   -0.6497 C   0  0  0  0  0  0  0  0  0  0  0  0
   -4.3419   -2.4423    0.6817 C   0  0  0  0  0  0  0  0  0  0  0  0
   -5.6080   -3.0407    1.0089 N   0  0  0  0  0  0  0  0  0  0  0  0
   -6.7878   -2.9237    0.1988 C   0  0  0  0  0  0  0  0  0  0  0  0
   -7.9956   -3.7410    0.5227 C   0  0  0  0  0  0  0  0  0  0  0  0
   -6.8466   -2.0779   -0.7340 O   0  0  0  0  0  0  0  0  0  0  0  0
   -3.4935   -2.0205    1.7146 C   0  0  0  0  0  0  0  0  0  0  0  0
   -2.2502   -1.4535    1.4232 C   0  0  0  0  0  0  0  0  0  0  0  0
   -0.9362    0.9740   -2.4799 C   0  0  0  0  0  0  0  0  0  0  0  0
   -0.3902    1.3159   -3.8703 C   0  0  0  0  0  0  0  0  0  0  0  0
   -0.3211    2.8405   -3.9352 C   0  0  0  0  0  0  0  0  0  0  0  0
   -0.3457    3.3249   -2.4930 C   0  0  0  0  0  0  0  0  0  0  0  0
   -0.8599    2.2105   -1.7181 N   0  0  0  0  0  0  0  0  0  0  0  0
   -1.4093    2.3630   -0.3997 C   0  0  0  0  0  0  0  0  0  0  0  0
   -2.4456    1.7179   -0.0823 O   0  0  0  0  0  0  0  0  0  0  0  0
   -0.7829    3.3254    0.5851 C   0  0  0  0  0  0  0  0  0  0  0  0
   -1.2303    3.1016    2.0236 C   0  0  0  0  0  0  0  0  0  0  0  0
   -0.0888    3.6549    2.8494 C   0  0  0  0  0  0  0  0  0  0  0  0
    1.1065    3.7072    1.9012 C   0  0  0  0  0  0  0  0  0  0  0  0
    0.6776    3.2191    0.5891 N   0  0  0  0  0  0  0  0  0  0  0  0
    2.5650   -1.6315   -0.2316 C   0  0  0  0  0  0  0  0  0  0  0  0
    3.6260   -2.2174    0.4649 C   0  0  0  0  0  0  0  0  0  0  0  0
    0.6878    0.0000    0.0000 Cl  0  0  0  0  0  0  0  0  0  0  0  0
    8.4836   -3.5387    1.8676 H   0  0  0  0  0  0  0  0  0  0  0  0
    9.2805   -1.9154    1.9415 H   0  0  0  0  0  0  0  0  0  0  0  0
    7.9710   -2.3284    3.1120 H   0  0  0  0  0  0  0  0  0  0  0  0
    5.6476   -2.8604    2.0984 H   0  0  0  0  0  0  0  0  0  0  0  0
    5.8516    0.3574    0.2928 H   0  0  0  0  0  0  0  0  0  0  0  0
    3.9968    1.3712   -0.9495 H   0  0  0  0  0  0  0  0  0  0  0  0
   -2.3638   -1.6875   -1.9757 H   0  0  0  0  0  0  0  0  0  0  0  0
   -4.5148   -2.6925   -1.4653 H   0  0  0  0  0  0  0  0  0  0  0  0
   -5.7005   -3.5210    1.9329 H   0  0  0  0  0  0  0  0  0  0  0  0
   -7.6895   -4.7623    0.8319 H   0  0  0  0  0  0  0  0  0  0  0  0
   -8.6572   -3.8218   -0.3658 H   0  0  0  0  0  0  0  0  0  0  0  0
   -8.5554   -3.2603    1.3517 H   0  0  0  0  0  0  0  0  0  0  0  0
   -3.8021   -2.1205    2.7477 H   0  0  0  0  0  0  0  0  0  0  0  0
   -1.6138   -1.1187    2.2327 H   0  0  0  0  0  0  0  0  0  0  0  0
   -1.9943    0.6449   -2.5576 H   0  0  0  0  0  0  0  0  0  0  0  0
   -1.0545    0.9155   -4.6667 H   0  0  0  0  0  0  0  0  0  0  0  0
    0.6320    0.9059   -4.0267 H   0  0  0  0  0  0  0  0  0  0  0  0
   -1.2141    3.2285   -4.4731 H   0  0  0  0  0  0  0  0  0  0  0  0
    0.5969    3.1837   -4.4601 H   0  0  0  0  0  0  0  0  0  0  0  0
   -1.0099    4.2111   -2.3933 H   0  0  0  0  0  0  0  0  0  0  0  0
    0.6799    3.5783   -2.1489 H   0  0  0  0  0  0  0  0  0  0  0  0
   -1.0613    4.3589    0.2800 H   0  0  0  0  0  0  0  0  0  0  0  0
   -2.1869    3.6250    2.2407 H   0  0  0  0  0  0  0  0  0  0  0  0
   -1.3388    2.0144    2.2388 H   0  0  0  0  0  0  0  0  0  0  0  0
   -0.3371    4.6781    3.2083 H   0  0  0  0  0  0  0  0  0  0  0  0
    0.1201    3.0014    3.7245 H   0  0  0  0  0  0  0  0  0  0  0  0
    1.4648    4.7543    1.7984 H   0  0  0  0  0  0  0  0  0  0  0  0
    1.9462    3.0910    2.2951 H   0  0  0  0  0  0  0  0  0  0  0  0
    0.9422    2.2057    0.5337 H   0  0  0  0  0  0  0  0  0  0  0  0
    1.6566   -2.2027   -0.3564 H   0  0  0  0  0  0  0  0  0  0  0  0
    3.5106   -3.2180    0.8628 H   0  0  0  0  0  0  0  0  0  0  0  0
   -0.6878    0.0000    0.0000 H   0  0  0  0  0  0  0  0  0  0  0  0
  1  2  1  0
  2  3  2  0
  2  4  1  0
  4  5  1  0
  5  6  2  0
  6  7  1  0
  7  8  2  0
  8  9  1  0
  9 10  1  0
 10 11  2  0
 10 12  1  0
 12 13  1  0
 13 14  2  0
 14 15  1  0
 15 16  2  0
 16 17  1  0
 17 18  1  0
 18 19  1  0
 18 20  2  0
 16 21  1  0
 21 22  2  0
 10 23  1  0
 23 24  1  0
 24 25  1  0
 25 26  1  0
 26 27  1  0
 27 28  1  0
 28 29  2  0
 28 30  1  0
 30 31  1  0
 31 32  1  0
 32 33  1  0
 33 34  1  0
  8 35  1  0
 35 36  2  0
 36  5  1  0
 22 13  1  0
 27 23  1  0
 34 30  1  0
  1 38  1  0
  1 39  1  0
  1 40  1  0
  4 41  1  0
  6 42  1  0
  7 43  1  0
 14 44  1  0
 15 45  1  0
 17 46  1  0
 19 47  1  0
 19 48  1  0
 19 49  1  0
 21 50  1  0
 22 51  1  0
 23 52  1  0
 24 53  1  0
 24 54  1  0
 25 55  1  0
 25 56  1  0
 26 57  1  0
 26 58  1  0
 30 59  1  0
 31 60  1  0
 31 61  1  0
 32 62  1  0
 32 63  1  0
 33 64  1  0
 33 65  1  0
 34 66  1  0
 35 67  1  0
 36 68  1  0
 37 69  1  0
M  END
$$$$
