
     RDKit          3D

 52 54  0  0  0  0  0  0  0  0999 V2000
   -2.2459    1.5211   -3.1286 F   0  0  0  0  0  0  0  0  0  0  0  0
   -2.6171    0.3881   -2.4714 C   0  0  0  0  0  0  0  0  0  0  0  0
   -1.6138   -0.7391   -2.4464 C   0  0  0  0  0  0  0  0  0  0  0  0
   -1.1558   -1.0090   -1.0750 N   0  0  0  0  0  0  0  0  0  0  0  0
   -0.2481    0.0304   -0.5486 C   0  0  0  0  0  0  0  0  0  0  0  0
    1.1630   -0.0603   -1.1893 C   0  0  0  0  0  0  0  0  0  0  0  0
    2.2401    0.4800   -0.2384 C   0  0  0  0  0  0  0  0  0  0  0  0
    2.3010   -0.2665    1.0480 N   0  0  0  0  0  0  0  0  0  0  0  0
    3.4023   -1.2509    1.0691 C   0  0  0  0  0  0  0  0  0  0  0  0
    4.7258   -0.5566    1.2579 C   0  0  0  0  0  0  0  0  0  0  0  0
    5.7023   -0.5871    0.2478 C   0  0  0  0  0  0  0  0  0  0  0  0
    6.9245    0.0674    0.4306 C   0  0  0  0  0  0  0  0  0  0  0  0
    7.1803    0.7549    1.6202 C   0  0  0  0  0  0  0  0  0  0  0  0
    6.2142    0.7893    2.6295 C   0  0  0  0  0  0  0  0  0  0  0  0
    4.9906    0.1364    2.4508 C   0  0  0  0  0  0  0  0  0  0  0  0
    1.0219   -0.9086    1.4377 C   0  0  0  0  0  0  0  0  0  0  0  0
   -0.1875   -0.0803    0.9913 C   0  0  0  0  0  0  0  0  0  0  0  0
   -3.8328    0.3270   -1.8716 C   0  0  0  0  0  0  0  0  0  0  0  0
   -4.7801    1.5086   -1.9190 C   0  0  0  0  0  0  0  0  0  0  0  0
   -5.3026    1.8242   -0.5119 C   0  0  0  0  0  0  0  0  0  0  0  0
   -5.9082    0.5803    0.1532 C   0  0  0  0  0  0  0  0  0  0  0  0
   -4.8866   -0.5638    0.2131 C   0  0  0  0  0  0  0  0  0  0  0  0
   -4.3664   -0.9176   -1.1847 C   0  0  0  0  0  0  0  0  0  0  0  0
   -2.0859   -1.6517   -2.8707 H   0  0  0  0  0  0  0  0  0  0  0  0
   -0.7548   -0.4949   -3.1077 H   0  0  0  0  0  0  0  0  0  0  0  0
   -0.6798   -1.9413   -1.0553 H   0  0  0  0  0  0  0  0  0  0  0  0
   -0.6664    1.0378   -0.7724 H   0  0  0  0  0  0  0  0  0  0  0  0
    1.1833    0.5288   -2.1314 H   0  0  0  0  0  0  0  0  0  0  0  0
    1.4187   -1.1117   -1.4442 H   0  0  0  0  0  0  0  0  0  0  0  0
    2.0166    1.5456   -0.0151 H   0  0  0  0  0  0  0  0  0  0  0  0
    3.2187    0.4773   -0.7669 H   0  0  0  0  0  0  0  0  0  0  0  0
    3.3941   -1.8654    0.1401 H   0  0  0  0  0  0  0  0  0  0  0  0
    3.2788   -1.9566    1.9219 H   0  0  0  0  0  0  0  0  0  0  0  0
    5.5173   -1.1130   -0.6806 H   0  0  0  0  0  0  0  0  0  0  0  0
    7.6732    0.0423   -0.3506 H   0  0  0  0  0  0  0  0  0  0  0  0
    8.1267    1.2612    1.7598 H   0  0  0  0  0  0  0  0  0  0  0  0
    6.4130    1.3224    3.5502 H   0  0  0  0  0  0  0  0  0  0  0  0
    4.2487    0.1712    3.2391 H   0  0  0  0  0  0  0  0  0  0  0  0
    0.9352   -1.9300    0.9999 H   0  0  0  0  0  0  0  0  0  0  0  0
    0.9939   -1.0102    2.5440 H   0  0  0  0  0  0  0  0  0  0  0  0
   -0.1032    0.9360    1.4364 H   0  0  0  0  0  0  0  0  0  0  0  0
   -1.1219   -0.5346    1.3884 H   0  0  0  0  0  0  0  0  0  0  0  0
   -5.6346    1.2568   -2.5837 H   0  0  0  0  0  0  0  0  0  0  0  0
   -4.2965    2.4225   -2.3251 H   0  0  0  0  0  0  0  0  0  0  0  0
   -6.0773    2.6182   -0.5779 H   0  0  0  0  0  0  0  0  0  0  0  0
   -4.4688    2.2114    0.1146 H   0  0  0  0  0  0  0  0  0  0  0  0
   -6.2305    0.8374    1.1851 H   0  0  0  0  0  0  0  0  0  0  0  0
   -6.8062    0.2516   -0.4149 H   0  0  0  0  0  0  0  0  0  0  0  0
   -4.0328   -0.2688    0.8626 H   0  0  0  0  0  0  0  0  0  0  0  0
   -5.3658   -1.4595    0.6639 H   0  0  0  0  0  0  0  0  0  0  0  0
   -5.2008   -1.3275   -1.7938 H   0  0  0  0  0  0  0  0  0  0  0  0
   -3.6141   -1.7234   -1.0824 H   0  0  0  0  0  0  0  0  0  0  0  0
  1  2  1  0
  2  3  1  0
  3  4  1  0
  4  5  1  0
  5  6  1  0
  6  7  1  0
  7  8  1  0
  8  9  1  0
  9 10  1  0
 10 11  2  0
 11 12  1  0
 12 13  2  0
 13 14  1  0
 14 15  2  0
  8 16  1  0
 16 17  1  0
  2 18  2  3
 18 19  1  0
 19 20  1  0
 20 21  1  0
 21 22  1  0
 22 23  1  0
 17  5  1  0
 23 18  1  0
 15 10  1  0
  3 24  1  0
  3 25  1  0
  4 26  1  0
  5 27  1  0
  6 28  1  0
  6 29  1  0
  7 30  1  0
  7 31  1  0
  9 32  1  0
  9 33  1  0
 11 34  1  0
 12 35  1  0
 13 36  1  0
 14 37  1  0
 15 38  1  0
 16 39  1  0
 16 40  1  0
 17 41  1  0
 17 42  1  0
 19 43  1  0
 19 44  1  0
 20 45  1  0
 20 46  1  0
 21 47  1  0
 21 48  1  0
 22 49  1  0
 22 50  1  0
 23 51  1  0
 23 52  1  0
M  END
$$$$
