
     RDKit          3D

 51 52  0  0  0  0  0  0  0  0999 V2000
    5.6730    2.9746    1.4419 C   0  0  0  0  0  0  0  0  0  0  0  0
    5.4579    1.5124    1.0842 C   0  0  0  0  0  0  0  0  0  0  0  0
    4.1555    1.3502    0.5621 O   0  0  0  0  0  0  0  0  0  0  0  0
    3.8859   -0.0215    0.3334 C   0  0  1  0  0  0  0  0  0  0  0  0
    3.3447   -0.7052    1.5924 C   0  0  0  0  0  0  0  0  0  0  0  0
    2.2583   -1.6834    1.1204 C   0  0  1  0  0  0  0  0  0  0  0  0
    0.8718   -1.4042    1.6998 C   0  0  0  0  0  0  0  0  0  0  0  0
   -0.0995   -1.8472    0.6134 C   0  0  1  0  0  0  0  0  0  0  0  0
   -1.3859   -1.1399    0.7442 N   0  0  0  0  0  0  0  0  0  0  0  0
   -2.4105   -1.7273   -0.1276 C   0  0  0  0  0  0  0  0  0  0  0  0
   -3.7165   -1.0106    0.0666 C   0  0  0  0  0  0  0  0  0  0  0  0
   -4.4386   -1.3298    1.0498 O   0  0  0  0  0  0  0  0  0  0  0  0
   -4.1369    0.0510   -0.8152 N   0  0  0  0  0  0  0  0  0  0  0  0
   -3.2881    0.6389   -1.8404 C   0  0  0  0  0  0  0  0  0  0  0  0
   -3.9772    1.9304   -2.2581 C   0  0  0  0  0  0  0  0  0  0  0  0
   -5.4227    1.8044   -1.7872 C   0  0  0  0  0  0  0  0  0  0  0  0
   -5.4074    0.7512   -0.6767 C   0  0  1  0  0  0  0  0  0  0  0  0
   -6.5382   -0.1823   -0.8172 C   0  0  0  0  0  0  0  0  0  0  0  0
   -7.4263   -0.9160   -0.9273 N   0  0  0  0  0  0  0  0  0  0  0  0
    0.6184   -1.5592   -0.7138 C   0  0  0  0  0  0  0  0  0  0  0  0
    2.1179   -1.5055   -0.3850 C   0  0  1  0  0  0  0  0  0  0  0  0
    2.7783   -0.1642   -0.6998 C   0  0  0  0  0  0  0  0  0  0  0  0
    0.6878    0.0000    0.0000 Cl  0  0  0  0  0  0  0  0  0  0  0  0
    4.9335    3.2906    2.2080 H   0  0  0  0  0  0  0  0  0  0  0  0
    6.6965    3.1153    1.8493 H   0  0  0  0  0  0  0  0  0  0  0  0
    5.5548    3.6086    0.5376 H   0  0  0  0  0  0  0  0  0  0  0  0
    6.2192    1.2224    0.3253 H   0  0  0  0  0  0  0  0  0  0  0  0
    5.6014    0.9040    2.0061 H   0  0  0  0  0  0  0  0  0  0  0  0
    4.7760   -0.5801   -0.0484 H   0  0  0  0  0  0  0  0  0  0  0  0
    2.9421    0.0504    2.3026 H   0  0  0  0  0  0  0  0  0  0  0  0
    4.1622   -1.2552    2.1073 H   0  0  0  0  0  0  0  0  0  0  0  0
    2.5521   -2.7332    1.3495 H   0  0  0  0  0  0  0  0  0  0  0  0
    0.7371   -0.3167    1.8968 H   0  0  0  0  0  0  0  0  0  0  0  0
    0.7087   -1.9684    2.6436 H   0  0  0  0  0  0  0  0  0  0  0  0
   -0.2502   -2.9469    0.7202 H   0  0  0  0  0  0  0  0  0  0  0  0
   -1.2576   -0.1306    0.4954 H   0  0  0  0  0  0  0  0  0  0  0  0
   -2.1003   -1.6825   -1.1932 H   0  0  0  0  0  0  0  0  0  0  0  0
   -2.5575   -2.7986    0.1336 H   0  0  0  0  0  0  0  0  0  0  0  0
   -3.2099   -0.0574   -2.7031 H   0  0  0  0  0  0  0  0  0  0  0  0
   -2.2766    0.8615   -1.4389 H   0  0  0  0  0  0  0  0  0  0  0  0
   -3.9194    2.0825   -3.3579 H   0  0  0  0  0  0  0  0  0  0  0  0
   -3.4955    2.7923   -1.7455 H   0  0  0  0  0  0  0  0  0  0  0  0
   -5.8055    2.7780   -1.4105 H   0  0  0  0  0  0  0  0  0  0  0  0
   -6.0514    1.4836   -2.6490 H   0  0  0  0  0  0  0  0  0  0  0  0
   -5.4528    1.2433    0.3192 H   0  0  0  0  0  0  0  0  0  0  0  0
    0.2650   -0.6085   -1.1696 H   0  0  0  0  0  0  0  0  0  0  0  0
    0.4131   -2.3766   -1.4390 H   0  0  0  0  0  0  0  0  0  0  0  0
    2.6630   -2.3207   -0.9134 H   0  0  0  0  0  0  0  0  0  0  0  0
    2.0543    0.6731   -0.5770 H   0  0  0  0  0  0  0  0  0  0  0  0
    3.1842   -0.1473   -1.7345 H   0  0  0  0  0  0  0  0  0  0  0  0
   -0.6878    0.0000    0.0000 H   0  0  0  0  0  0  0  0  0  0  0  0
  1  2  1  0
  2  3  1  0
  3  4  1  0
  4  5  1  0
  5  6  1  0
  6  7  1  0
  7  8  1  0
  8  9  1  0
  9 10  1  0
 10 11  1  0
 11 12  2  0
 11 13  1  0
 13 14  1  0
 14 15  1  0
 15 16  1  0
 16 17  1  0
 17 18  1  0
 18 19  3  0
  8 20  1  0
 20 21  1  0
 21 22  1  0
 22  4  1  0
 21  6  1  0
 17 13  1  0
  1 24  1  0
  1 25  1  0
  1 26  1  0
  2 27  1  0
  2 28  1  0
  4 29  1  6
  5 30  1  0
  5 31  1  0
  6 32  1  6
  7 33  1  0
  7 34  1  0
  8 35  1  1
  9 36  1  0
 10 37  1  0
 10 38  1  0
 14 39  1  0
 14 40  1  0
 15 41  1  0
 15 42  1  0
 16 43  1  0
 16 44  1  0
 17 45  1  1
 20 46  1  0
 20 47  1  0
 21 48  1  6
 22 49  1  0
 22 50  1  0
 23 51  1  0
M  END
$$$$
