
     RDKit          3D

 41 41  0  0  0  0  0  0  0  0999 V2000
    6.5569   -0.7491   -1.5932 C   0  0  0  0  0  0  0  0  0  0  0  0
    5.9759   -1.4341   -0.3617 C   0  0  0  0  0  0  0  0  0  0  0  0
    4.7104   -0.8706   -0.0228 O   0  0  0  0  0  0  0  0  0  0  0  0
    4.5607    0.3702    0.6053 C   0  0  0  0  0  0  0  0  0  0  0  0
    5.5751    1.0328    0.9560 O   0  0  0  0  0  0  0  0  0  0  0  0
    3.2177    0.9121    0.8698 C   0  0  0  0  0  0  0  0  0  0  0  0
    2.9159    2.1227    1.4920 C   0  0  0  0  0  0  0  0  0  0  0  0
    1.5733    2.2870    1.5661 N   0  0  0  0  0  0  0  0  0  0  0  0
    1.0276    1.2199    1.0070 N   0  0  0  0  0  0  0  0  0  0  0  0
   -0.2930    0.9512    0.8692 C   0  0  0  0  0  0  0  0  0  0  0  0
   -1.1575    1.7473    1.3257 O   0  0  0  0  0  0  0  0  0  0  0  0
   -0.6503   -0.2577    0.2323 C   0  0  0  0  0  0  0  0  0  0  0  0
   -2.0538   -0.6694    0.0200 C   0  0  0  0  0  0  0  0  0  0  0  0
   -2.3244   -1.8998    0.0046 O   0  0  0  0  0  0  0  0  0  0  0  0
   -3.0879    0.3057   -0.2157 N   0  0  0  0  0  0  0  0  0  0  0  0
   -4.5363    0.0380   -0.1164 C   0  0  0  0  0  0  0  0  0  0  0  0
   -4.9767   -0.9369   -1.2258 C   0  0  0  0  0  0  0  0  0  0  0  0
   -5.3052    1.3634   -0.2956 C   0  0  0  0  0  0  0  0  0  0  0  0
   -4.8768   -0.5406    1.2710 C   0  0  0  0  0  0  0  0  0  0  0  0
    0.3525   -1.0982   -0.1724 N   0  0  0  0  0  0  0  0  0  0  0  0
    1.6454   -0.7957   -0.0088 N   0  0  0  0  0  0  0  0  0  0  0  0
    1.9749    0.3798    0.5829 C   0  0  0  0  0  0  0  0  0  0  0  0
    0.9376    0.0000    0.0000 Na  0  0  0  0  0  1  0  0  0  0  0  0
    6.7526    0.3232   -1.3840 H   0  0  0  0  0  0  0  0  0  0  0  0
    7.5132   -1.2374   -1.8756 H   0  0  0  0  0  0  0  0  0  0  0  0
    5.8461   -0.8309   -2.4425 H   0  0  0  0  0  0  0  0  0  0  0  0
    5.8333   -2.5118   -0.5876 H   0  0  0  0  0  0  0  0  0  0  0  0
    6.6796   -1.3516    0.4950 H   0  0  0  0  0  0  0  0  0  0  0  0
    3.6326    2.8396    1.8705 H   0  0  0  0  0  0  0  0  0  0  0  0
   -2.7811    1.2681   -0.4850 H   0  0  0  0  0  0  0  0  0  0  0  0
   -6.0828   -1.0463   -1.2334 H   0  0  0  0  0  0  0  0  0  0  0  0
   -4.6535   -0.5592   -2.2197 H   0  0  0  0  0  0  0  0  0  0  0  0
   -4.5451   -1.9472   -1.0781 H   0  0  0  0  0  0  0  0  0  0  0  0
   -6.4022    1.2017   -0.2151 H   0  0  0  0  0  0  0  0  0  0  0  0
   -5.0013    2.0958    0.4833 H   0  0  0  0  0  0  0  0  0  0  0  0
   -5.0897    1.8062   -1.2921 H   0  0  0  0  0  0  0  0  0  0  0  0
   -5.9758   -0.6610    1.3862 H   0  0  0  0  0  0  0  0  0  0  0  0
   -4.4117   -1.5370    1.4187 H   0  0  0  0  0  0  0  0  0  0  0  0
   -4.5097    0.1377    2.0710 H   0  0  0  0  0  0  0  0  0  0  0  0
    2.3707   -1.4679   -0.3367 H   0  0  0  0  0  0  0  0  0  0  0  0
   -0.9376    0.0000    0.0000 H   0  0  0  0  0  0  0  0  0  0  0  0
  1  2  1  0
  2  3  1  0
  3  4  1  0
  4  5  2  0
  4  6  1  0
  6  7  1  0
  7  8  2  0
  8  9  1  0
  9 10  1  0
 10 11  2  0
 10 12  1  0
 12 13  1  0
 13 14  2  0
 13 15  1  0
 15 16  1  0
 16 17  1  0
 16 18  1  0
 16 19  1  0
 12 20  2  0
 20 21  1  0
 21 22  1  0
 22  6  2  0
 22  9  1  0
  1 24  1  0
  1 25  1  0
  1 26  1  0
  2 27  1  0
  2 28  1  0
  7 29  1  0
 15 30  1  0
 17 31  1  0
 17 32  1  0
 17 33  1  0
 18 34  1  0
 18 35  1  0
 18 36  1  0
 19 37  1  0
 19 38  1  0
 19 39  1  0
 21 40  1  0
 23 41  1  0
M  END
$$$$
