
     RDKit          3D

 71 75  0  0  0  0  0  0  0  0999 V2000
    9.7952    1.0402    0.0682 C   0  0  0  0  0  0  0  0  0  0  0  0
    9.2100   -0.3139   -0.1623 C   0  0  0  0  0  0  0  0  0  0  0  0
    9.5692   -1.1272   -1.1278 O   0  0  0  0  0  0  0  0  0  0  0  0
    8.8261   -2.2011   -0.9874 C   0  0  0  0  0  0  0  0  0  0  0  0
    8.8978   -3.2032   -1.7453 O   0  0  0  0  0  0  0  0  0  0  0  0
    8.0002   -2.1154    0.0303 O   0  0  0  0  0  0  0  0  0  0  0  0
    8.2156   -0.9384    0.5701 C   0  0  0  0  0  0  0  0  0  0  0  0
    7.4879   -0.4118    1.7689 C   0  0  0  0  0  0  0  0  0  0  0  0
    6.0818   -0.4225    1.5364 O   0  0  0  0  0  0  0  0  0  0  0  0
    5.4414    0.4549    0.6514 C   0  0  0  0  0  0  0  0  0  0  0  0
    6.1095    1.3351    0.0415 O   0  0  0  0  0  0  0  0  0  0  0  0
    3.9803    0.3467    0.4352 C   0  0  0  0  0  0  0  0  0  0  0  0
    3.2428   -0.6349    1.1124 C   0  0  0  0  0  0  0  0  0  0  0  0
    1.8684   -0.7493    0.9171 C   0  0  0  0  0  0  0  0  0  0  0  0
    1.2064    0.1190    0.0393 C   0  0  0  0  0  0  0  0  0  0  0  0
   -0.1640    0.0294   -0.1731 C   0  0  0  0  0  0  0  0  0  0  0  0
   -1.0159   -0.8556    0.3747 N   0  0  0  0  0  0  0  0  0  0  0  0
   -2.2051   -0.5113   -0.1738 C   0  0  0  0  0  0  0  0  0  0  0  0
   -3.4088   -1.2396    0.1018 N   0  0  0  0  0  0  0  0  0  0  0  0
   -3.8074   -2.2653   -0.8694 C   0  0  0  0  0  0  0  0  0  0  0  0
   -5.2835   -2.6435   -0.7063 C   0  0  0  0  0  0  0  0  0  0  0  0
   -5.6189   -2.9539    0.7541 C   0  0  0  0  0  0  0  0  0  0  0  0
   -5.2605   -1.7631    1.6559 C   0  0  1  0  0  0  0  0  0  0  0  0
   -5.5675   -2.0817    3.0506 N   0  0  0  0  0  0  0  0  0  0  0  0
   -3.7686   -1.4273    1.5117 C   0  0  0  0  0  0  0  0  0  0  0  0
   -2.1364    0.5562   -1.0154 N   0  0  0  0  0  0  0  0  0  0  0  0
   -3.2492    1.1836   -1.7477 C   0  0  0  0  0  0  0  0  0  0  0  0
   -4.4424    1.4413   -0.8539 C   0  0  0  0  0  0  0  0  0  0  0  0
   -5.7025    0.9473   -1.2344 C   0  0  0  0  0  0  0  0  0  0  0  0
   -6.8271    1.1768   -0.4380 C   0  0  0  0  0  0  0  0  0  0  0  0
   -8.0324    0.6786   -0.8083 F   0  0  0  0  0  0  0  0  0  0  0  0
   -6.7099    1.9145    0.7406 C   0  0  0  0  0  0  0  0  0  0  0  0
   -5.4716    2.4377    1.1168 C   0  0  0  0  0  0  0  0  0  0  0  0
   -4.3390    2.2193    0.3229 C   0  0  0  0  0  0  0  0  0  0  0  0
   -2.8232    2.9625    0.8221 Cl  0  0  0  0  0  0  0  0  0  0  0  0
   -0.8182    0.8697   -1.0199 C   0  0  0  0  0  0  0  0  0  0  0  0
   -0.1153    1.8514   -1.7327 C   0  0  0  0  0  0  0  0  0  0  0  0
   -0.7202    2.5996   -2.5462 O   0  0  0  0  0  0  0  0  0  0  0  0
    1.2491    1.9764   -1.5411 N   0  0  0  0  0  0  0  0  0  0  0  0
    1.9910    3.0197   -2.2784 C   0  0  0  0  0  0  0  0  0  0  0  0
    1.9210    1.1263   -0.6665 C   0  0  0  0  0  0  0  0  0  0  0  0
    3.3181    1.2195   -0.4489 C   0  0  0  0  0  0  0  0  0  0  0  0
    0.6878    0.0000    0.0000 Cl  0  0  0  0  0  0  0  0  0  0  0  0
   10.2368    1.0888    1.0853 H   0  0  0  0  0  0  0  0  0  0  0  0
   10.5895    1.2419   -0.6805 H   0  0  0  0  0  0  0  0  0  0  0  0
    9.0033    1.8116   -0.0284 H   0  0  0  0  0  0  0  0  0  0  0  0
    7.8226    0.6158    2.0268 H   0  0  0  0  0  0  0  0  0  0  0  0
    7.7109   -1.0711    2.6330 H   0  0  0  0  0  0  0  0  0  0  0  0
    3.7284   -1.3192    1.7967 H   0  0  0  0  0  0  0  0  0  0  0  0
    1.3241   -1.5167    1.4543 H   0  0  0  0  0  0  0  0  0  0  0  0
   -3.1772   -3.1697   -0.7228 H   0  0  0  0  0  0  0  0  0  0  0  0
   -3.6456   -1.8972   -1.9058 H   0  0  0  0  0  0  0  0  0  0  0  0
   -5.9272   -1.8140   -1.0638 H   0  0  0  0  0  0  0  0  0  0  0  0
   -5.5045   -3.5348   -1.3322 H   0  0  0  0  0  0  0  0  0  0  0  0
   -6.7065   -3.1696    0.8343 H   0  0  0  0  0  0  0  0  0  0  0  0
   -5.0624   -3.8605    1.0806 H   0  0  0  0  0  0  0  0  0  0  0  0
   -5.8600   -0.8789    1.3439 H   0  0  0  0  0  0  0  0  0  0  0  0
   -6.5978   -2.2438    3.1315 H   0  0  0  0  0  0  0  0  0  0  0  0
   -5.3648   -1.2362    3.6326 H   0  0  0  0  0  0  0  0  0  0  0  0
   -3.1523   -2.2480    1.9411 H   0  0  0  0  0  0  0  0  0  0  0  0
   -3.5538   -0.4953    2.0808 H   0  0  0  0  0  0  0  0  0  0  0  0
   -2.9611    2.1612   -2.1710 H   0  0  0  0  0  0  0  0  0  0  0  0
   -3.5210    0.5289   -2.6032 H   0  0  0  0  0  0  0  0  0  0  0  0
   -5.8154    0.3800   -2.1498 H   0  0  0  0  0  0  0  0  0  0  0  0
   -7.5805    2.0895    1.3593 H   0  0  0  0  0  0  0  0  0  0  0  0
   -5.3950    3.0239    2.0237 H   0  0  0  0  0  0  0  0  0  0  0  0
    1.3428    3.6378   -2.9328 H   0  0  0  0  0  0  0  0  0  0  0  0
    2.7570    2.5488   -2.9307 H   0  0  0  0  0  0  0  0  0  0  0  0
    2.4785    3.7146   -1.5618 H   0  0  0  0  0  0  0  0  0  0  0  0
    3.9069    1.9659   -0.9618 H   0  0  0  0  0  0  0  0  0  0  0  0
   -0.6878    0.0000    0.0000 H   0  0  0  0  0  0  0  0  0  0  0  0
  1  2  1  0
  2  3  1  0
  3  4  1  0
  4  5  2  0
  4  6  1  0
  6  7  1  0
  7  8  1  0
  8  9  1  0
  9 10  1  0
 10 11  2  0
 10 12  1  0
 12 13  2  0
 13 14  1  0
 14 15  2  0
 15 16  1  0
 16 17  1  0
 17 18  2  0
 18 19  1  0
 19 20  1  0
 20 21  1  0
 21 22  1  0
 22 23  1  0
 23 24  1  0
 23 25  1  0
 18 26  1  0
 26 27  1  0
 27 28  1  0
 28 29  2  0
 29 30  1  0
 30 31  1  0
 30 32  2  0
 32 33  1  0
 33 34  2  0
 34 35  1  0
 26 36  1  0
 36 37  1  0
 37 38  2  0
 37 39  1  0
 39 40  1  0
 39 41  1  0
 41 42  2  0
  7  2  2  0
 42 12  1  0
 41 15  1  0
 36 16  2  0
 25 19  1  0
 34 28  1  0
  1 44  1  0
  1 45  1  0
  1 46  1  0
  8 47  1  0
  8 48  1  0
 13 49  1  0
 14 50  1  0
 20 51  1  0
 20 52  1  0
 21 53  1  0
 21 54  1  0
 22 55  1  0
 22 56  1  0
 23 57  1  6
 24 58  1  0
 24 59  1  0
 25 60  1  0
 25 61  1  0
 27 62  1  0
 27 63  1  0
 29 64  1  0
 32 65  1  0
 33 66  1  0
 40 67  1  0
 40 68  1  0
 40 69  1  0
 42 70  1  0
 43 71  1  0
M  END
$$$$
