
     RDKit          3D

 51 53  0  0  0  0  0  0  0  0999 V2000
    5.3011   -0.9197    2.4304 N   0  0  0  0  0  0  0  0  0  0  0  0
    5.4271   -0.7188    1.2977 C   0  0  0  0  0  0  0  0  0  0  0  0
    5.5862   -0.4634   -0.1434 C   0  0  2  0  0  0  0  0  0  0  0  0
    6.4977    0.7382   -0.3935 C   0  0  0  0  0  0  0  0  0  0  0  0
    5.5646    1.9103   -0.6854 C   0  0  0  0  0  0  0  0  0  0  0  0
    4.2563    1.2889   -1.1568 C   0  0  0  0  0  0  0  0  0  0  0  0
    4.3031   -0.1003   -0.7269 N   0  0  0  0  0  0  0  0  0  0  0  0
    3.2335   -1.0430   -0.9338 C   0  0  0  0  0  0  0  0  0  0  0  0
    3.3860   -2.2476   -0.5935 O   0  0  0  0  0  0  0  0  0  0  0  0
    1.9155   -0.6132   -1.5098 C   0  0  0  0  0  0  0  0  0  0  0  0
    1.1662    0.1515   -0.5052 N   0  0  0  0  0  0  0  0  0  0  0  0
   -0.0438    0.7771   -1.0676 C   0  0  0  0  0  0  0  0  0  0  0  0
   -1.2453   -0.1911   -1.1617 C   0  0  0  0  0  0  0  0  0  0  0  0
   -1.9932   -0.3758    0.1848 C   0  0  0  0  0  0  0  0  0  0  0  0
   -2.9614   -1.5496    0.1764 C   0  0  0  0  0  0  0  0  0  0  0  0
   -3.7404   -1.8735   -0.9544 C   0  0  0  0  0  0  0  0  0  0  0  0
   -4.6489   -2.9352   -0.9090 C   0  0  0  0  0  0  0  0  0  0  0  0
   -4.8029   -3.6777    0.2632 C   0  0  0  0  0  0  0  0  0  0  0  0
   -4.0525   -3.3566    1.3955 C   0  0  0  0  0  0  0  0  0  0  0  0
   -3.1424   -2.2964    1.3564 C   0  0  0  0  0  0  0  0  0  0  0  0
   -2.7102    0.8905    0.6208 C   0  0  0  0  0  0  0  0  0  0  0  0
   -3.7477    1.4461   -0.1537 C   0  0  0  0  0  0  0  0  0  0  0  0
   -4.3978    2.6108    0.2645 C   0  0  0  0  0  0  0  0  0  0  0  0
   -4.0234    3.2331    1.4573 C   0  0  0  0  0  0  0  0  0  0  0  0
   -2.9981    2.6911    2.2352 C   0  0  0  0  0  0  0  0  0  0  0  0
   -2.3447    1.5263    1.8222 C   0  0  0  0  0  0  0  0  0  0  0  0
    5.9979   -1.3689   -0.6402 H   0  0  0  0  0  0  0  0  0  0  0  0
    7.1754    0.9622    0.4606 H   0  0  0  0  0  0  0  0  0  0  0  0
    7.1216    0.5409   -1.2932 H   0  0  0  0  0  0  0  0  0  0  0  0
    5.3887    2.4837    0.2514 H   0  0  0  0  0  0  0  0  0  0  0  0
    5.9934    2.5886   -1.4546 H   0  0  0  0  0  0  0  0  0  0  0  0
    4.1859    1.3355   -2.2651 H   0  0  0  0  0  0  0  0  0  0  0  0
    3.3904    1.8121   -0.6972 H   0  0  0  0  0  0  0  0  0  0  0  0
    1.3407   -1.5109   -1.8253 H   0  0  0  0  0  0  0  0  0  0  0  0
    2.1071    0.0045   -2.4134 H   0  0  0  0  0  0  0  0  0  0  0  0
    0.9162   -0.4819    0.2883 H   0  0  0  0  0  0  0  0  0  0  0  0
   -0.3127    1.6514   -0.4386 H   0  0  0  0  0  0  0  0  0  0  0  0
    0.1691    1.1931   -2.0776 H   0  0  0  0  0  0  0  0  0  0  0  0
   -1.9412    0.2128   -1.9268 H   0  0  0  0  0  0  0  0  0  0  0  0
   -0.9034   -1.1793   -1.5341 H   0  0  0  0  0  0  0  0  0  0  0  0
   -1.2154   -0.6194    0.9400 H   0  0  0  0  0  0  0  0  0  0  0  0
   -3.6541   -1.3115   -1.8734 H   0  0  0  0  0  0  0  0  0  0  0  0
   -5.2380   -3.1797   -1.7836 H   0  0  0  0  0  0  0  0  0  0  0  0
   -5.5084   -4.4979    0.2958 H   0  0  0  0  0  0  0  0  0  0  0  0
   -4.1790   -3.9269    2.3068 H   0  0  0  0  0  0  0  0  0  0  0  0
   -2.5795   -2.0555    2.2498 H   0  0  0  0  0  0  0  0  0  0  0  0
   -4.0563    0.9820   -1.0802 H   0  0  0  0  0  0  0  0  0  0  0  0
   -5.1934    3.0312   -0.3371 H   0  0  0  0  0  0  0  0  0  0  0  0
   -4.5281    4.1348    1.7790 H   0  0  0  0  0  0  0  0  0  0  0  0
   -2.7091    3.1739    3.1599 H   0  0  0  0  0  0  0  0  0  0  0  0
   -1.5524    1.1230    2.4404 H   0  0  0  0  0  0  0  0  0  0  0  0
  1  2  3  0
  2  3  1  0
  3  4  1  0
  4  5  1  0
  5  6  1  0
  6  7  1  0
  7  8  1  0
  8  9  2  0
  8 10  1  0
 10 11  1  0
 11 12  1  0
 12 13  1  0
 13 14  1  0
 14 15  1  0
 15 16  2  0
 16 17  1  0
 17 18  2  0
 18 19  1  0
 19 20  2  0
 14 21  1  0
 21 22  2  0
 22 23  1  0
 23 24  2  0
 24 25  1  0
 25 26  2  0
  7  3  1  0
 20 15  1  0
 26 21  1  0
  3 27  1  6
  4 28  1  0
  4 29  1  0
  5 30  1  0
  5 31  1  0
  6 32  1  0
  6 33  1  0
 10 34  1  0
 10 35  1  0
 11 36  1  0
 12 37  1  0
 12 38  1  0
 13 39  1  0
 13 40  1  0
 14 41  1  0
 16 42  1  0
 17 43  1  0
 18 44  1  0
 19 45  1  0
 20 46  1  0
 22 47  1  0
 23 48  1  0
 24 49  1  0
 25 50  1  0
 26 51  1  0
M  END
$$$$
