
     RDKit          3D

 62 63  0  0  0  0  0  0  0  0999 V2000
    0.6417   -5.3124   -1.4795 C   0  0  0  0  0  0  0  0  0  0  0  0
    0.0151   -4.2379   -0.7018 N   0  0  0  0  0  0  0  0  0  0  0  0
    0.1643   -4.2135    0.7584 C   0  0  0  0  0  0  0  0  0  0  0  0
   -0.7581   -3.2326   -1.3991 C   0  0  0  0  0  0  0  0  0  0  0  0
   -0.9722   -3.3764   -2.6344 O   0  0  0  0  0  0  0  0  0  0  0  0
   -1.2931   -1.9971   -0.6848 C   0  0  1  0  0  0  0  0  0  0  0  0
   -0.1644   -1.0661   -0.2773 C   0  0  0  0  0  0  0  0  0  0  0  0
    0.8491   -0.7062   -1.1836 C   0  0  0  0  0  0  0  0  0  0  0  0
    1.8420    0.2039   -0.8122 C   0  0  0  0  0  0  0  0  0  0  0  0
    1.8442    0.7742    0.4726 C   0  0  0  0  0  0  0  0  0  0  0  0
    2.8840    1.7607    0.8590 C   0  0  0  0  0  0  0  0  0  0  0  0
    3.2996    2.7536   -0.0482 C   0  0  0  0  0  0  0  0  0  0  0  0
    4.2755    3.6849    0.3195 C   0  0  0  0  0  0  0  0  0  0  0  0
    4.8469    3.6362    1.5933 C   0  0  0  0  0  0  0  0  0  0  0  0
    5.7932    4.5403    1.9473 F   0  0  0  0  0  0  0  0  0  0  0  0
    4.4423    2.6557    2.5024 C   0  0  0  0  0  0  0  0  0  0  0  0
    3.4660    1.7226    2.1402 C   0  0  0  0  0  0  0  0  0  0  0  0
    0.8392    0.4041    1.3822 C   0  0  0  0  0  0  0  0  0  0  0  0
   -0.1533   -0.5053    1.0110 C   0  0  0  0  0  0  0  0  0  0  0  0
   -2.4214   -1.2520   -1.4682 C   0  0  2  0  0  0  0  0  0  0  0  0
   -1.9084   -0.4549   -2.5869 N   0  0  0  0  0  0  0  0  0  0  0  0
   -3.2512   -0.3989   -0.5231 C   0  0  0  0  0  0  0  0  0  0  0  0
   -4.2995   -0.9092   -0.0419 O   0  0  0  0  0  0  0  0  0  0  0  0
   -2.8447    0.9119   -0.0718 N   0  0  0  0  0  0  0  0  0  0  0  0
   -3.3579    1.4908    1.1601 C   0  0  0  0  0  0  0  0  0  0  0  0
   -2.8986    2.9428    1.1663 C   0  0  0  0  0  0  0  0  0  0  0  0
   -1.7939    3.0318    0.1191 C   0  0  2  0  0  0  0  0  0  0  0  0
   -1.8592    4.2286   -0.5743 F   0  0  0  0  0  0  0  0  0  0  0  0
   -2.0088    1.8466   -0.8118 C   0  0  0  0  0  0  0  0  0  0  0  0
    0.9716    1.1402   -0.8452 O   0  0  0  0  0  0  0  0  0  0  0  0
    0.5054    0.1608   -0.2037 C   0  0  0  0  0  0  0  0  0  0  0  0
    1.3185   -0.9326    0.0796 O   0  0  0  0  0  0  0  0  0  0  0  0
   -0.9333    0.1477    0.1999 C   0  0  0  0  0  0  0  0  0  0  0  0
   -1.1165   -0.7094    1.2696 F   0  0  0  0  0  0  0  0  0  0  0  0
   -1.7040   -0.2815   -0.8639 F   0  0  0  0  0  0  0  0  0  0  0  0
   -1.3323    1.4197    0.5689 F   0  0  0  0  0  0  0  0  0  0  0  0
    1.2226   -6.0063   -0.8366 H   0  0  0  0  0  0  0  0  0  0  0  0
   -0.1406   -5.9000   -2.0051 H   0  0  0  0  0  0  0  0  0  0  0  0
    1.3358   -4.8755   -2.2284 H   0  0  0  0  0  0  0  0  0  0  0  0
    0.7493   -5.0820    1.1264 H   0  0  0  0  0  0  0  0  0  0  0  0
    0.6986   -3.2943    1.0719 H   0  0  0  0  0  0  0  0  0  0  0  0
   -0.8334   -4.2548    1.2426 H   0  0  0  0  0  0  0  0  0  0  0  0
   -1.7773   -2.3855    0.2377 H   0  0  0  0  0  0  0  0  0  0  0  0
    0.8659   -1.1202   -2.1835 H   0  0  0  0  0  0  0  0  0  0  0  0
    2.6131    0.4567   -1.5290 H   0  0  0  0  0  0  0  0  0  0  0  0
    2.8572    2.8209   -1.0342 H   0  0  0  0  0  0  0  0  0  0  0  0
    4.5855    4.4471   -0.3838 H   0  0  0  0  0  0  0  0  0  0  0  0
    4.8869    2.6156    3.4885 H   0  0  0  0  0  0  0  0  0  0  0  0
    3.1785    0.9619    2.8551 H   0  0  0  0  0  0  0  0  0  0  0  0
    0.8027    0.8407    2.3722 H   0  0  0  0  0  0  0  0  0  0  0  0
   -0.9270   -0.7573    1.7254 H   0  0  0  0  0  0  0  0  0  0  0  0
   -3.1074   -2.0255   -1.8865 H   0  0  0  0  0  0  0  0  0  0  0  0
   -2.7234   -0.0240   -3.0815 H   0  0  0  0  0  0  0  0  0  0  0  0
   -1.4580   -1.0836   -3.2873 H   0  0  0  0  0  0  0  0  0  0  0  0
   -4.4682    1.4384    1.1856 H   0  0  0  0  0  0  0  0  0  0  0  0
   -2.9355    0.9441    2.0308 H   0  0  0  0  0  0  0  0  0  0  0  0
   -2.5277    3.2452    2.1697 H   0  0  0  0  0  0  0  0  0  0  0  0
   -3.7471    3.6017    0.8772 H   0  0  0  0  0  0  0  0  0  0  0  0
   -0.8021    2.9452    0.6159 H   0  0  0  0  0  0  0  0  0  0  0  0
   -2.5377    2.1640   -1.7364 H   0  0  0  0  0  0  0  0  0  0  0  0
   -1.0292    1.4011   -1.0697 H   0  0  0  0  0  0  0  0  0  0  0  0
    2.2906   -0.9449   -0.2052 H   0  0  0  0  0  0  0  0  0  0  0  0
  1  2  1  0
  2  3  1  0
  2  4  1  0
  4  5  2  0
  4  6  1  0
  6  7  1  0
  7  8  2  0
  8  9  1  0
  9 10  2  0
 10 11  1  0
 11 12  2  0
 12 13  1  0
 13 14  2  0
 14 15  1  0
 14 16  1  0
 16 17  2  0
 10 18  1  0
 18 19  2  0
  6 20  1  0
 20 21  1  0
 20 22  1  0
 22 23  2  0
 22 24  1  0
 24 25  1  0
 25 26  1  0
 26 27  1  0
 27 28  1  0
 27 29  1  0
 30 31  2  0
 31 32  1  0
 31 33  1  0
 33 34  1  0
 33 35  1  0
 33 36  1  0
 19  7  1  0
 29 24  1  0
 17 11  1  0
  1 37  1  0
  1 38  1  0
  1 39  1  0
  3 40  1  0
  3 41  1  0
  3 42  1  0
  6 43  1  1
  8 44  1  0
  9 45  1  0
 12 46  1  0
 13 47  1  0
 16 48  1  0
 17 49  1  0
 18 50  1  0
 19 51  1  0
 20 52  1  6
 21 53  1  0
 21 54  1  0
 25 55  1  0
 25 56  1  0
 26 57  1  0
 26 58  1  0
 27 59  1  1
 29 60  1  0
 29 61  1  0
 32 62  1  0
M  END
$$$$
