
     RDKit          3D

 59 62  0  0  0  0  0  0  0  0999 V2000
    2.8504    0.8485   -1.3763 N   0  0  0  0  0  0  0  0  0  0  0  0
    2.4857    0.7369    0.0402 C   0  0  1  0  0  0  0  0  0  0  0  0
    2.8607   -0.6477    0.6213 C   0  0  0  0  0  0  0  0  0  0  0  0
    2.0806   -1.7594   -0.0317 C   0  0  0  0  0  0  0  0  0  0  0  0
    2.7177   -2.6629   -0.6391 O   0  0  0  0  0  0  0  0  0  0  0  0
    0.6370   -1.7892   -0.0177 N   0  0  0  0  0  0  0  0  0  0  0  0
   -0.1241   -1.3803    1.1743 C   0  0  0  0  0  0  0  0  0  0  0  0
   -1.3982   -0.6420    0.7618 C   0  0  0  0  0  0  0  0  0  0  0  0
   -2.1000   -1.4106   -0.2693 N   0  0  0  0  0  0  0  0  0  0  0  0
   -3.4645   -1.8272   -0.0817 C   0  0  0  0  0  0  0  0  0  0  0  0
   -3.7637   -3.1987   -0.0559 C   0  0  0  0  0  0  0  0  0  0  0  0
   -5.0663   -3.6356    0.1910 C   0  0  0  0  0  0  0  0  0  0  0  0
   -6.0835   -2.7084    0.4178 C   0  0  0  0  0  0  0  0  0  0  0  0
   -5.8040   -1.3405    0.3880 C   0  0  0  0  0  0  0  0  0  0  0  0
   -4.5000   -0.8835    0.1285 C   0  0  0  0  0  0  0  0  0  0  0  0
   -4.2501    0.5744    0.0492 C   0  0  0  0  0  0  0  0  0  0  0  0
   -3.6359    1.1323   -1.0858 C   0  0  0  0  0  0  0  0  0  0  0  0
   -3.3923    2.5073   -1.1515 C   0  0  0  0  0  0  0  0  0  0  0  0
   -3.7669    3.3364   -0.0910 C   0  0  0  0  0  0  0  0  0  0  0  0
   -4.3893    2.7923    1.0356 C   0  0  0  0  0  0  0  0  0  0  0  0
   -4.6340    1.4174    1.1061 C   0  0  0  0  0  0  0  0  0  0  0  0
   -1.3511   -1.8029   -1.4651 C   0  0  0  0  0  0  0  0  0  0  0  0
   -0.0794   -2.5461   -1.0551 C   0  0  0  0  0  0  0  0  0  0  0  0
    3.1045    1.8961    0.8503 C   0  0  0  0  0  0  0  0  0  0  0  0
    4.6164    1.9097    0.8314 C   0  0  0  0  0  0  0  0  0  0  0  0
    5.3376    1.2287    1.8277 C   0  0  0  0  0  0  0  0  0  0  0  0
    6.7356    1.2216    1.8098 C   0  0  0  0  0  0  0  0  0  0  0  0
    7.4202    0.5584    2.7744 F   0  0  0  0  0  0  0  0  0  0  0  0
    7.4261    1.8961    0.7988 C   0  0  0  0  0  0  0  0  0  0  0  0
    8.7819    1.8898    0.7801 F   0  0  0  0  0  0  0  0  0  0  0  0
    6.7187    2.5793   -0.1939 C   0  0  0  0  0  0  0  0  0  0  0  0
    5.3201    2.5895   -0.1815 C   0  0  0  0  0  0  0  0  0  0  0  0
    4.6553    3.2629   -1.1546 F   0  0  0  0  0  0  0  0  0  0  0  0
    3.8248    0.4961   -1.5196 H   0  0  0  0  0  0  0  0  0  0  0  0
    2.2152    0.2354   -1.9372 H   0  0  0  0  0  0  0  0  0  0  0  0
    1.3836    0.8637    0.1212 H   0  0  0  0  0  0  0  0  0  0  0  0
    3.9471   -0.8313    0.4725 H   0  0  0  0  0  0  0  0  0  0  0  0
    2.6874   -0.6699    1.7172 H   0  0  0  0  0  0  0  0  0  0  0  0
    0.4632   -0.7150    1.8368 H   0  0  0  0  0  0  0  0  0  0  0  0
   -0.3963   -2.2863    1.7580 H   0  0  0  0  0  0  0  0  0  0  0  0
   -2.0416   -0.4951    1.6569 H   0  0  0  0  0  0  0  0  0  0  0  0
   -1.1322    0.3578    0.3559 H   0  0  0  0  0  0  0  0  0  0  0  0
   -2.9793   -3.9296   -0.2068 H   0  0  0  0  0  0  0  0  0  0  0  0
   -5.2857   -4.6952    0.2147 H   0  0  0  0  0  0  0  0  0  0  0  0
   -7.0922   -3.0498    0.6115 H   0  0  0  0  0  0  0  0  0  0  0  0
   -6.6107   -0.6355    0.5477 H   0  0  0  0  0  0  0  0  0  0  0  0
   -3.3510    0.5043   -1.9206 H   0  0  0  0  0  0  0  0  0  0  0  0
   -2.9152    2.9304   -2.0260 H   0  0  0  0  0  0  0  0  0  0  0  0
   -3.5775    4.4007   -0.1434 H   0  0  0  0  0  0  0  0  0  0  0  0
   -4.6803    3.4358    1.8557 H   0  0  0  0  0  0  0  0  0  0  0  0
   -5.1084    1.0083    1.9896 H   0  0  0  0  0  0  0  0  0  0  0  0
   -1.9655   -2.4480   -2.1305 H   0  0  0  0  0  0  0  0  0  0  0  0
   -1.0743   -0.8893   -2.0348 H   0  0  0  0  0  0  0  0  0  0  0  0
    0.5531   -2.6798   -1.9598 H   0  0  0  0  0  0  0  0  0  0  0  0
   -0.3437   -3.5509   -0.6600 H   0  0  0  0  0  0  0  0  0  0  0  0
    2.7449    1.8378    1.9013 H   0  0  0  0  0  0  0  0  0  0  0  0
    2.7185    2.8598    0.4520 H   0  0  0  0  0  0  0  0  0  0  0  0
    4.8158    0.7003    2.6160 H   0  0  0  0  0  0  0  0  0  0  0  0
    7.2552    3.1025   -0.9751 H   0  0  0  0  0  0  0  0  0  0  0  0
  1  2  1  0
  2  3  1  0
  3  4  1  0
  4  5  2  0
  4  6  1  0
  6  7  1  0
  7  8  1  0
  8  9  1  0
  9 10  1  0
 10 11  2  0
 11 12  1  0
 12 13  2  0
 13 14  1  0
 14 15  2  0
 15 16  1  0
 16 17  2  0
 17 18  1  0
 18 19  2  0
 19 20  1  0
 20 21  2  0
  9 22  1  0
 22 23  1  0
  2 24  1  0
 24 25  1  0
 25 26  2  0
 26 27  1  0
 27 28  1  0
 27 29  2  0
 29 30  1  0
 29 31  1  0
 31 32  2  0
 32 33  1  0
 23  6  1  0
 32 25  1  0
 15 10  1  0
 21 16  1  0
  1 34  1  0
  1 35  1  0
  2 36  1  6
  3 37  1  0
  3 38  1  0
  7 39  1  0
  7 40  1  0
  8 41  1  0
  8 42  1  0
 11 43  1  0
 12 44  1  0
 13 45  1  0
 14 46  1  0
 17 47  1  0
 18 48  1  0
 19 49  1  0
 20 50  1  0
 21 51  1  0
 22 52  1  0
 22 53  1  0
 23 54  1  0
 23 55  1  0
 24 56  1  0
 24 57  1  0
 26 58  1  0
 31 59  1  0
M  END
$$$$
