
     RDKit          3D

 63 67  0  0  0  0  0  0  0  0999 V2000
   -5.9529   -0.1464   -1.1527 N   0  0  0  0  0  0  0  0  0  0  0  0
   -5.1668   -0.4780    0.0392 C   0  0  1  0  0  0  0  0  0  0  0  0
   -3.8432   -1.1606   -0.3504 C   0  0  0  0  0  0  0  0  0  0  0  0
   -2.9613   -1.3466    0.8901 C   0  0  1  0  0  0  0  0  0  0  0  0
   -1.6454   -1.8588    0.5091 N   0  0  0  0  0  0  0  0  0  0  0  0
   -1.1885   -3.0479    0.8783 N   0  0  0  0  0  0  0  0  0  0  0  0
    0.0361   -3.1682    0.3342 C   0  0  0  0  0  0  0  0  0  0  0  0
    0.2811   -2.0089   -0.3693 C   0  0  0  0  0  0  0  0  0  0  0  0
    1.4678   -1.6948   -1.1122 N   0  0  0  0  0  0  0  0  0  0  0  0
    2.6339   -2.5564   -1.2011 C   0  0  0  0  0  0  0  0  0  0  0  0
    3.6249   -1.8391   -2.1380 C   0  0  0  0  0  0  0  0  0  0  0  0
    3.0728   -0.4091   -2.3839 C   0  0  0  0  0  0  0  0  0  0  0  0
    2.9570   -0.1393   -3.7603 O   0  0  0  0  0  0  0  0  0  0  0  0
    3.8996    0.6480   -1.6798 C   0  0  0  0  0  0  0  0  0  0  0  0
    4.4022    1.5955   -2.3440 O   0  0  0  0  0  0  0  0  0  0  0  0
    4.1150    0.5767   -0.2611 N   0  0  0  0  0  0  0  0  0  0  0  0
    5.0457    1.4615    0.4346 C   0  0  0  0  0  0  0  0  0  0  0  0
    6.4655    1.0845    0.1012 C   0  0  0  0  0  0  0  0  0  0  0  0
    6.9792   -0.1418    0.5556 C   0  0  0  0  0  0  0  0  0  0  0  0
    8.2858   -0.5219    0.2371 C   0  0  0  0  0  0  0  0  0  0  0  0
    9.0893    0.3164   -0.5389 C   0  0  0  0  0  0  0  0  0  0  0  0
    8.5875    1.5368   -0.9998 C   0  0  0  0  0  0  0  0  0  0  0  0
    9.3710    2.3453   -1.7557 F   0  0  0  0  0  0  0  0  0  0  0  0
    7.2793    1.9233   -0.6848 C   0  0  0  0  0  0  0  0  0  0  0  0
    6.8102    3.1102   -1.1472 F   0  0  0  0  0  0  0  0  0  0  0  0
    1.7183   -0.4745   -1.7856 C   0  0  0  0  0  0  0  0  0  0  0  0
    0.8765    0.4616   -1.8551 O   0  0  0  0  0  0  0  0  0  0  0  0
   -0.7835   -1.1977   -0.2512 N   0  0  0  0  0  0  0  0  0  0  0  0
   -2.8253   -0.0092    1.6352 C   0  0  0  0  0  0  0  0  0  0  0  0
   -4.0965    0.4831    2.0171 O   0  0  0  0  0  0  0  0  0  0  0  0
   -4.8748    0.7966    0.8717 C   0  0  2  0  0  0  0  0  0  0  0  0
   -6.1694    1.4459    1.3178 C   0  0  0  0  0  0  0  0  0  0  0  0
   -6.6366    2.5997    0.6613 C   0  0  0  0  0  0  0  0  0  0  0  0
   -7.8422    3.1950    1.0449 C   0  0  0  0  0  0  0  0  0  0  0  0
   -8.2806    4.3085    0.4076 F   0  0  0  0  0  0  0  0  0  0  0  0
   -8.5974    2.6419    2.0813 C   0  0  0  0  0  0  0  0  0  0  0  0
   -8.1511    1.4906    2.7336 C   0  0  0  0  0  0  0  0  0  0  0  0
   -6.9463    0.8889    2.3555 C   0  0  0  0  0  0  0  0  0  0  0  0
   -6.5428   -0.2356    2.9997 F   0  0  0  0  0  0  0  0  0  0  0  0
   -6.1659   -1.0304   -1.6699 H   0  0  0  0  0  0  0  0  0  0  0  0
   -5.3840    0.4596   -1.7883 H   0  0  0  0  0  0  0  0  0  0  0  0
   -5.7539   -1.1898    0.6620 H   0  0  0  0  0  0  0  0  0  0  0  0
   -4.0515   -2.1514   -0.8098 H   0  0  0  0  0  0  0  0  0  0  0  0
   -3.3067   -0.5365   -1.0995 H   0  0  0  0  0  0  0  0  0  0  0  0
   -3.4548   -2.0771    1.5708 H   0  0  0  0  0  0  0  0  0  0  0  0
    0.6847   -4.0268    0.4452 H   0  0  0  0  0  0  0  0  0  0  0  0
    2.3484   -3.5485   -1.6133 H   0  0  0  0  0  0  0  0  0  0  0  0
    3.0811   -2.6839   -0.1914 H   0  0  0  0  0  0  0  0  0  0  0  0
    3.6826   -2.4012   -3.0964 H   0  0  0  0  0  0  0  0  0  0  0  0
    4.6447   -1.8265   -1.6928 H   0  0  0  0  0  0  0  0  0  0  0  0
    3.8641   -0.2252   -4.1566 H   0  0  0  0  0  0  0  0  0  0  0  0
    3.6194   -0.1540    0.2972 H   0  0  0  0  0  0  0  0  0  0  0  0
    4.8217    2.5189    0.1778 H   0  0  0  0  0  0  0  0  0  0  0  0
    4.8979    1.3585    1.5316 H   0  0  0  0  0  0  0  0  0  0  0  0
    6.3647   -0.8043    1.1529 H   0  0  0  0  0  0  0  0  0  0  0  0
    8.6749   -1.4681    0.5905 H   0  0  0  0  0  0  0  0  0  0  0  0
   10.1006    0.0188   -0.7845 H   0  0  0  0  0  0  0  0  0  0  0  0
   -2.2264   -0.1750    2.5556 H   0  0  0  0  0  0  0  0  0  0  0  0
   -2.2759    0.7410    1.0212 H   0  0  0  0  0  0  0  0  0  0  0  0
   -4.3172    1.5248    0.2351 H   0  0  0  0  0  0  0  0  0  0  0  0
   -6.0691    3.0377   -0.1504 H   0  0  0  0  0  0  0  0  0  0  0  0
   -9.5311    3.1024    2.3773 H   0  0  0  0  0  0  0  0  0  0  0  0
   -8.7424    1.0617    3.5324 H   0  0  0  0  0  0  0  0  0  0  0  0
  1  2  1  0
  2  3  1  0
  3  4  1  0
  4  5  1  0
  5  6  1  0
  6  7  2  0
  7  8  1  0
  8  9  1  0
  9 10  1  0
 10 11  1  0
 11 12  1  0
 12 13  1  0
 12 14  1  0
 14 15  2  0
 14 16  1  0
 16 17  1  0
 17 18  1  0
 18 19  2  0
 19 20  1  0
 20 21  2  0
 21 22  1  0
 22 23  1  0
 22 24  2  0
 24 25  1  0
 12 26  1  0
 26 27  2  0
  8 28  2  0
  4 29  1  0
 29 30  1  0
 30 31  1  0
 31 32  1  0
 32 33  2  0
 33 34  1  0
 34 35  1  0
 34 36  2  0
 36 37  1  0
 37 38  2  0
 38 39  1  0
 31  2  1  0
 38 32  1  0
 28  5  1  0
 26  9  1  0
 24 18  1  0
  1 40  1  0
  1 41  1  0
  2 42  1  1
  3 43  1  0
  3 44  1  0
  4 45  1  1
  7 46  1  0
 10 47  1  0
 10 48  1  0
 11 49  1  0
 11 50  1  0
 13 51  1  0
 16 52  1  0
 17 53  1  0
 17 54  1  0
 19 55  1  0
 20 56  1  0
 21 57  1  0
 29 58  1  0
 29 59  1  0
 31 60  1  6
 33 61  1  0
 36 62  1  0
 37 63  1  0
M  END
$$$$
