
     RDKit          3D

 52 53  0  0  0  0  0  0  0  0999 V2000
   -1.1990   -2.2688    0.7995 N   0  0  0  0  0  0  0  0  0  0  0  0
   -0.3686   -1.0631    0.7181 C   0  0  1  0  0  0  0  0  0  0  0  0
    1.0722   -1.4694    0.3467 C   0  0  0  0  0  0  0  0  0  0  0  0
    1.8659   -0.2928   -0.0054 N   0  0  0  0  0  0  0  0  0  0  0  0
    1.3846    0.9098   -0.4022 C   0  0  0  0  0  0  0  0  0  0  0  0
    2.3521    1.7914   -0.7696 N   0  0  0  0  0  0  0  0  0  0  0  0
    3.4771    1.0651   -0.6173 C   0  0  0  0  0  0  0  0  0  0  0  0
    4.7884    1.4481   -0.8738 C   0  0  0  0  0  0  0  0  0  0  0  0
    5.7781    0.5283   -0.6665 N   0  0  0  0  0  0  0  0  0  0  0  0
    5.5110   -0.7413   -0.2207 C   0  0  0  0  0  0  0  0  0  0  0  0
    6.5290   -1.6158   -0.0339 F   0  0  0  0  0  0  0  0  0  0  0  0
    4.1868   -1.1403    0.0420 C   0  0  0  0  0  0  0  0  0  0  0  0
    3.1918   -0.1886   -0.1683 C   0  0  0  0  0  0  0  0  0  0  0  0
   -0.0721    1.2489   -0.3440 C   0  0  0  0  0  0  0  0  0  0  0  0
   -0.9302   -0.0367   -0.3140 C   0  0  2  0  0  0  0  0  0  0  0  0
   -2.3883    0.3121   -0.0520 C   0  0  0  0  0  0  0  0  0  0  0  0
   -2.7829    0.8599    1.1854 C   0  0  0  0  0  0  0  0  0  0  0  0
   -4.1217    1.1807    1.4270 C   0  0  0  0  0  0  0  0  0  0  0  0
   -4.4853    1.7049    2.6236 F   0  0  0  0  0  0  0  0  0  0  0  0
   -5.0832    0.9622    0.4378 C   0  0  0  0  0  0  0  0  0  0  0  0
   -6.3824    1.2732    0.6712 F   0  0  0  0  0  0  0  0  0  0  0  0
   -4.7065    0.4240   -0.7944 C   0  0  0  0  0  0  0  0  0  0  0  0
   -3.3688    0.1002   -1.0440 C   0  0  0  0  0  0  0  0  0  0  0  0
   -3.0376   -0.4195   -2.2533 F   0  0  0  0  0  0  0  0  0  0  0  0
    0.6501   -0.1434   -1.5860 O   0  0  0  0  0  0  0  0  0  0  0  0
    0.4486   -0.0202   -0.3481 C   0  0  0  0  0  0  0  0  0  0  0  0
    1.5273    0.0026    0.5309 O   0  0  0  0  0  0  0  0  0  0  0  0
   -0.9480    0.0414    0.1797 C   0  0  0  0  0  0  0  0  0  0  0  0
   -1.4479   -1.2409    0.3048 F   0  0  0  0  0  0  0  0  0  0  0  0
   -1.7498    0.7614   -0.6874 F   0  0  0  0  0  0  0  0  0  0  0  0
   -0.9587    0.6568    1.4182 F   0  0  0  0  0  0  0  0  0  0  0  0
    0.6511   -0.1443   -1.5854 O   0  0  0  0  0  0  0  0  0  0  0  0
    0.4488   -0.0202   -0.3478 C   0  0  0  0  0  0  0  0  0  0  0  0
    1.5269    0.0039    0.5319 O   0  0  0  0  0  0  0  0  0  0  0  0
   -0.9482    0.0410    0.1791 C   0  0  0  0  0  0  0  0  0  0  0  0
   -1.4476   -1.2415    0.3042 F   0  0  0  0  0  0  0  0  0  0  0  0
   -1.7497    0.7604   -0.6887 F   0  0  0  0  0  0  0  0  0  0  0  0
   -0.9599    0.6567    1.4174 F   0  0  0  0  0  0  0  0  0  0  0  0
   -2.1032   -2.0320    1.2680 H   0  0  0  0  0  0  0  0  0  0  0  0
   -1.4206   -2.6069   -0.1657 H   0  0  0  0  0  0  0  0  0  0  0  0
   -0.3322   -0.5882    1.7242 H   0  0  0  0  0  0  0  0  0  0  0  0
    1.0582   -2.1614   -0.5235 H   0  0  0  0  0  0  0  0  0  0  0  0
    1.5408   -1.9951    1.2067 H   0  0  0  0  0  0  0  0  0  0  0  0
    5.0244    2.4414   -1.2315 H   0  0  0  0  0  0  0  0  0  0  0  0
    3.9572   -2.1382    0.3918 H   0  0  0  0  0  0  0  0  0  0  0  0
   -0.3454    1.8607   -1.2308 H   0  0  0  0  0  0  0  0  0  0  0  0
   -0.2431    1.8575    0.5690 H   0  0  0  0  0  0  0  0  0  0  0  0
   -0.8382   -0.5058   -1.3193 H   0  0  0  0  0  0  0  0  0  0  0  0
   -2.0550    1.0387    1.9660 H   0  0  0  0  0  0  0  0  0  0  0  0
   -5.4535    0.2571   -1.5599 H   0  0  0  0  0  0  0  0  0  0  0  0
    2.4785   -0.0577    0.1878 H   0  0  0  0  0  0  0  0  0  0  0  0
    2.4785   -0.0561    0.1894 H   0  0  0  0  0  0  0  0  0  0  0  0
  1  2  1  0
  2  3  1  0
  3  4  1  0
  4  5  1  0
  5  6  2  0
  6  7  1  0
  7  8  2  0
  8  9  1  0
  9 10  2  0
 10 11  1  0
 10 12  1  0
 12 13  2  0
  5 14  1  0
 14 15  1  0
 15 16  1  0
 16 17  2  0
 17 18  1  0
 18 19  1  0
 18 20  2  0
 20 21  1  0
 20 22  1  0
 22 23  2  0
 23 24  1  0
 25 26  2  0
 26 27  1  0
 26 28  1  0
 28 29  1  0
 28 30  1  0
 28 31  1  0
 32 33  2  0
 33 34  1  0
 33 35  1  0
 35 36  1  0
 35 37  1  0
 35 38  1  0
 15  2  1  0
 23 16  1  0
 13  4  1  0
 13  7  1  0
  1 39  1  0
  1 40  1  0
  2 41  1  1
  3 42  1  0
  3 43  1  0
  8 44  1  0
 12 45  1  0
 14 46  1  0
 14 47  1  0
 15 48  1  6
 17 49  1  0
 22 50  1  0
 27 51  1  0
 34 52  1  0
M  END
$$$$
