
     RDKit          3D

 57 60  0  0  0  0  0  0  0  0999 V2000
   -0.7584    4.2937    3.3058 C   0  0  0  0  0  0  0  0  0  0  0  0
   -0.7625    3.5323    2.0571 C   0  0  0  0  0  0  0  0  0  0  0  0
   -0.7646    2.9029    1.0293 C   0  0  0  0  0  0  0  0  0  0  0  0
   -0.7640    2.1314   -0.2174 C   0  0  0  0  0  0  0  0  0  0  0  0
   -0.7066    0.6977    0.0815 N   0  0  0  0  0  0  0  0  0  0  0  0
   -1.7408   -0.1853    0.1222 C   0  0  0  0  0  0  0  0  0  0  0  0
   -3.0794    0.1347   -0.2838 N   0  0  0  0  0  0  0  0  0  0  0  0
   -4.2078   -0.2678    0.5594 C   0  0  0  0  0  0  0  0  0  0  0  0
   -4.8841   -1.5043   -0.0412 C   0  0  0  0  0  0  0  0  0  0  0  0
   -5.2582   -1.2583   -1.5106 C   0  0  0  0  0  0  0  0  0  0  0  0
   -4.0306   -0.8235   -2.3340 C   0  0  1  0  0  0  0  0  0  0  0  0
   -4.4262   -0.5529   -3.7172 N   0  0  0  0  0  0  0  0  0  0  0  0
   -3.3604    0.4095   -1.6960 C   0  0  0  0  0  0  0  0  0  0  0  0
   -1.3980   -1.4108    0.5956 N   0  0  0  0  0  0  0  0  0  0  0  0
   -0.0840   -1.2681    0.8539 C   0  0  0  0  0  0  0  0  0  0  0  0
    0.3342   -0.0153    0.5570 C   0  0  0  0  0  0  0  0  0  0  0  0
    1.6540    0.3552    0.7894 C   0  0  0  0  0  0  0  0  0  0  0  0
    2.0370    1.5338    0.5566 O   0  0  0  0  0  0  0  0  0  0  0  0
    2.5265   -0.5925    1.2803 N   0  0  0  0  0  0  0  0  0  0  0  0
    3.9446   -0.2298    1.5029 C   0  0  0  0  0  0  0  0  0  0  0  0
    4.6383    0.1291    0.2025 C   0  0  0  0  0  0  0  0  0  0  0  0
    5.0285    1.4632   -0.0194 C   0  0  0  0  0  0  0  0  0  0  0  0
    5.6574    1.8338   -1.2104 C   0  0  0  0  0  0  0  0  0  0  0  0
    6.0211    3.1250   -1.4088 F   0  0  0  0  0  0  0  0  0  0  0  0
    5.9102    0.8772   -2.1947 C   0  0  0  0  0  0  0  0  0  0  0  0
    6.5208    1.2365   -3.3510 F   0  0  0  0  0  0  0  0  0  0  0  0
    5.5379   -0.4526   -1.9884 C   0  0  0  0  0  0  0  0  0  0  0  0
    4.9056   -0.8370   -0.7973 C   0  0  0  0  0  0  0  0  0  0  0  0
    4.5565   -2.2261   -0.6267 C   0  0  0  0  0  0  0  0  0  0  0  0
    4.2814   -3.3430   -0.4988 N   0  0  0  0  0  0  0  0  0  0  0  0
    2.0630   -1.8618    1.5963 C   0  0  0  0  0  0  0  0  0  0  0  0
    2.8525   -2.7186    2.0851 O   0  0  0  0  0  0  0  0  0  0  0  0
    0.7442   -2.2037    1.3908 N   0  0  0  0  0  0  0  0  0  0  0  0
    0.2602   -3.5587    1.6887 C   0  0  0  0  0  0  0  0  0  0  0  0
   -1.7398    4.1811    3.8109 H   0  0  0  0  0  0  0  0  0  0  0  0
    0.0447    3.9116    3.9690 H   0  0  0  0  0  0  0  0  0  0  0  0
   -0.5769    5.3657    3.0850 H   0  0  0  0  0  0  0  0  0  0  0  0
   -1.6826    2.3826   -0.7832 H   0  0  0  0  0  0  0  0  0  0  0  0
    0.1047    2.4269   -0.8410 H   0  0  0  0  0  0  0  0  0  0  0  0
   -3.8703   -0.4863    1.5964 H   0  0  0  0  0  0  0  0  0  0  0  0
   -4.9407    0.5665    0.6124 H   0  0  0  0  0  0  0  0  0  0  0  0
   -4.1938   -2.3735    0.0265 H   0  0  0  0  0  0  0  0  0  0  0  0
   -5.8004   -1.7442    0.5398 H   0  0  0  0  0  0  0  0  0  0  0  0
   -6.0454   -0.4736   -1.5616 H   0  0  0  0  0  0  0  0  0  0  0  0
   -5.6790   -2.1935   -1.9395 H   0  0  0  0  0  0  0  0  0  0  0  0
   -3.2973   -1.6616   -2.3355 H   0  0  0  0  0  0  0  0  0  0  0  0
   -3.5674   -0.3326   -4.2725 H   0  0  0  0  0  0  0  0  0  0  0  0
   -5.0399    0.2943   -3.7440 H   0  0  0  0  0  0  0  0  0  0  0  0
   -2.4244    0.6474   -2.2474 H   0  0  0  0  0  0  0  0  0  0  0  0
   -4.0348    1.2908   -1.7666 H   0  0  0  0  0  0  0  0  0  0  0  0
    3.9884    0.6183    2.2215 H   0  0  0  0  0  0  0  0  0  0  0  0
    4.5190   -1.0474    1.9869 H   0  0  0  0  0  0  0  0  0  0  0  0
    4.8401    2.2221    0.7300 H   0  0  0  0  0  0  0  0  0  0  0  0
    5.7455   -1.1856   -2.7593 H   0  0  0  0  0  0  0  0  0  0  0  0
   -0.8470   -3.5900    1.7715 H   0  0  0  0  0  0  0  0  0  0  0  0
    0.5795   -4.2526    0.8827 H   0  0  0  0  0  0  0  0  0  0  0  0
    0.6694   -3.9121    2.6593 H   0  0  0  0  0  0  0  0  0  0  0  0
  1  2  1  0
  2  3  3  0
  3  4  1  0
  4  5  1  0
  5  6  1  0
  6  7  1  0
  7  8  1  0
  8  9  1  0
  9 10  1  0
 10 11  1  0
 11 12  1  0
 11 13  1  0
  6 14  2  0
 14 15  1  0
 15 16  2  0
 16 17  1  0
 17 18  2  0
 17 19  1  0
 19 20  1  0
 20 21  1  0
 21 22  2  0
 22 23  1  0
 23 24  1  0
 23 25  2  0
 25 26  1  0
 25 27  1  0
 27 28  2  0
 28 29  1  0
 29 30  3  0
 19 31  1  0
 31 32  2  0
 31 33  1  0
 33 34  1  0
 16  5  1  0
 28 21  1  0
 13  7  1  0
 33 15  1  0
  1 35  1  0
  1 36  1  0
  1 37  1  0
  4 38  1  0
  4 39  1  0
  8 40  1  0
  8 41  1  0
  9 42  1  0
  9 43  1  0
 10 44  1  0
 10 45  1  0
 11 46  1  6
 12 47  1  0
 12 48  1  0
 13 49  1  0
 13 50  1  0
 20 51  1  0
 20 52  1  0
 22 53  1  0
 27 54  1  0
 34 55  1  0
 34 56  1  0
 34 57  1  0
M  END
$$$$
