
     RDKit          3D

 35 36  0  0  0  0  0  0  0  0999 V2000
   -4.6616   -1.5514    2.4639 N   0  0  0  0  0  0  0  0  0  0  0  0
   -4.0288   -0.6720    2.0571 C   0  0  0  0  0  0  0  0  0  0  0  0
   -3.2229    0.4467    1.5391 C   0  0  2  0  0  0  0  0  0  0  0  0
   -4.0409    1.3134    0.5846 C   0  0  0  0  0  0  0  0  0  0  0  0
   -3.6678    0.8393   -0.8148 C   0  0  0  0  0  0  0  0  0  0  0  0
   -2.2954    0.1910   -0.6780 C   0  0  0  0  0  0  0  0  0  0  0  0
   -2.1123   -0.0632    0.7447 N   0  0  0  0  0  0  0  0  0  0  0  0
   -0.9673   -0.7107    1.3465 C   0  0  0  0  0  0  0  0  0  0  0  0
   -1.0388   -1.0717    2.5533 O   0  0  0  0  0  0  0  0  0  0  0  0
    0.3528   -0.9125    0.6320 C   0  0  1  0  0  0  0  0  0  0  0  0
    0.1630   -1.5940   -0.6539 N   0  0  0  0  0  0  0  0  0  0  0  0
    1.1170    0.4227    0.4954 C   0  0  0  0  0  0  0  0  0  0  0  0
    2.5093    0.2118   -0.0433 C   0  0  0  0  0  0  0  0  0  0  0  0
    2.7850    0.4155   -1.4062 C   0  0  0  0  0  0  0  0  0  0  0  0
    4.0720    0.1923   -1.9054 C   0  0  0  0  0  0  0  0  0  0  0  0
    5.0900   -0.2396   -1.0509 C   0  0  0  0  0  0  0  0  0  0  0  0
    4.8222   -0.4510    0.3044 C   0  0  0  0  0  0  0  0  0  0  0  0
    3.5367   -0.2294    0.8077 C   0  0  0  0  0  0  0  0  0  0  0  0
   -2.8461    1.0597    2.3869 H   0  0  0  0  0  0  0  0  0  0  0  0
   -5.1382    1.2463    0.7589 H   0  0  0  0  0  0  0  0  0  0  0  0
   -3.7308    2.3755    0.7009 H   0  0  0  0  0  0  0  0  0  0  0  0
   -4.4077    0.0823   -1.1569 H   0  0  0  0  0  0  0  0  0  0  0  0
   -3.6496    1.6843   -1.5370 H   0  0  0  0  0  0  0  0  0  0  0  0
   -2.2742   -0.7615   -1.2487 H   0  0  0  0  0  0  0  0  0  0  0  0
   -1.5162    0.8874   -1.0484 H   0  0  0  0  0  0  0  0  0  0  0  0
    0.9687   -1.5783    1.2815 H   0  0  0  0  0  0  0  0  0  0  0  0
    0.0926   -0.8969   -1.4292 H   0  0  0  0  0  0  0  0  0  0  0  0
    1.0160   -2.1647   -0.8568 H   0  0  0  0  0  0  0  0  0  0  0  0
    0.5612    1.1305   -0.1535 H   0  0  0  0  0  0  0  0  0  0  0  0
    1.1909    0.9054    1.4950 H   0  0  0  0  0  0  0  0  0  0  0  0
    2.0050    0.7450   -2.0813 H   0  0  0  0  0  0  0  0  0  0  0  0
    4.2797    0.3523   -2.9555 H   0  0  0  0  0  0  0  0  0  0  0  0
    6.0853   -0.4126   -1.4392 H   0  0  0  0  0  0  0  0  0  0  0  0
    5.6104   -0.7891    0.9646 H   0  0  0  0  0  0  0  0  0  0  0  0
    3.3404   -0.4028    1.8587 H   0  0  0  0  0  0  0  0  0  0  0  0
  1  2  3  0
  2  3  1  0
  3  4  1  0
  4  5  1  0
  5  6  1  0
  6  7  1  0
  7  8  1  0
  8  9  2  0
  8 10  1  0
 10 11  1  0
 10 12  1  0
 12 13  1  0
 13 14  2  0
 14 15  1  0
 15 16  2  0
 16 17  1  0
 17 18  2  0
  7  3  1  0
 18 13  1  0
  3 19  1  1
  4 20  1  0
  4 21  1  0
  5 22  1  0
  5 23  1  0
  6 24  1  0
  6 25  1  0
 10 26  1  1
 11 27  1  0
 11 28  1  0
 12 29  1  0
 12 30  1  0
 14 31  1  0
 15 32  1  0
 16 33  1  0
 17 34  1  0
 18 35  1  0
M  END
$$$$
