
     RDKit          3D

 50 53  0  0  0  0  0  0  0  0999 V2000
    0.5348    1.4068   -0.9598 C   0  0  0  0  0  0  0  0  0  0  0  0
   -0.0990    0.2091   -0.1933 C   0  0  2  0  0  0  0  0  0  0  0  0
    0.9393   -0.7051    0.3827 N   0  0  0  0  0  0  0  0  0  0  0  0
    1.7405   -1.4799   -0.6092 C   0  0  0  0  0  0  0  0  0  0  0  0
    3.1322   -1.3667   -0.1404 C   0  0  0  0  0  0  0  0  0  0  0  0
    4.3157   -1.1972   -0.8221 C   0  0  0  0  0  0  0  0  0  0  0  0
    5.0730   -0.3576   -0.0852 N   0  0  0  0  0  0  0  0  0  0  0  0
    6.6019    0.2912   -0.5667 S   0  0  0  0  0  0  0  0  0  0  0  0
    7.4880    0.8619    0.8665 C   0  0  0  0  0  0  0  0  0  0  0  0
    7.4117   -0.7792   -1.2427 O   0  0  0  0  0  0  0  0  0  0  0  0
    6.3868    1.4358   -1.5160 O   0  0  0  0  0  0  0  0  0  0  0  0
    4.3877    0.0778    0.9639 N   0  0  0  0  0  0  0  0  0  0  0  0
    3.2183   -0.5877    0.9451 C   0  0  0  0  0  0  0  0  0  0  0  0
    1.8914   -0.0960    1.3559 C   0  0  0  0  0  0  0  0  0  0  0  0
   -1.0085   -0.5971   -1.1801 C   0  0  0  0  0  0  0  0  0  0  0  0
   -2.3504   -0.1540   -1.1302 O   0  0  0  0  0  0  0  0  0  0  0  0
   -2.9598   -0.5990    0.0724 C   0  0  2  0  0  0  0  0  0  0  0  0
   -4.3845   -0.0839    0.1278 C   0  0  0  0  0  0  0  0  0  0  0  0
   -5.4139   -0.9281    0.5842 C   0  0  0  0  0  0  0  0  0  0  0  0
   -6.7277   -0.4591    0.6770 C   0  0  0  0  0  0  0  0  0  0  0  0
   -7.7122   -1.2839    1.1116 F   0  0  0  0  0  0  0  0  0  0  0  0
   -7.0264    0.8596    0.3280 C   0  0  0  0  0  0  0  0  0  0  0  0
   -6.0115    1.7135   -0.1086 C   0  0  0  0  0  0  0  0  0  0  0  0
   -4.6945    1.2521   -0.2040 C   0  0  0  0  0  0  0  0  0  0  0  0
   -3.7276    2.1107   -0.6150 F   0  0  0  0  0  0  0  0  0  0  0  0
   -2.1627   -0.1437    1.3393 C   0  0  1  0  0  0  0  0  0  0  0  0
   -1.6690   -1.2898    2.1092 N   0  0  0  0  0  0  0  0  0  0  0  0
   -0.9962    0.7827    0.9532 C   0  0  0  0  0  0  0  0  0  0  0  0
    1.3172    1.0841   -1.6741 H   0  0  0  0  0  0  0  0  0  0  0  0
   -0.2470    1.9433   -1.5402 H   0  0  0  0  0  0  0  0  0  0  0  0
    0.9823    2.1521   -0.2719 H   0  0  0  0  0  0  0  0  0  0  0  0
    1.4296   -2.5452   -0.5892 H   0  0  0  0  0  0  0  0  0  0  0  0
    1.6559   -1.0939   -1.6456 H   0  0  0  0  0  0  0  0  0  0  0  0
    4.5405   -1.5135   -1.8323 H   0  0  0  0  0  0  0  0  0  0  0  0
    6.9122    1.6708    1.3617 H   0  0  0  0  0  0  0  0  0  0  0  0
    8.4804    1.2516    0.5594 H   0  0  0  0  0  0  0  0  0  0  0  0
    7.6255    0.0204    1.5765 H   0  0  0  0  0  0  0  0  0  0  0  0
    1.8880    1.0111    1.3506 H   0  0  0  0  0  0  0  0  0  0  0  0
    1.6612   -0.4591    2.3792 H   0  0  0  0  0  0  0  0  0  0  0  0
   -0.9540   -1.6923   -0.9788 H   0  0  0  0  0  0  0  0  0  0  0  0
   -0.6476   -0.4833   -2.2250 H   0  0  0  0  0  0  0  0  0  0  0  0
   -3.0145   -1.7129    0.0402 H   0  0  0  0  0  0  0  0  0  0  0  0
   -5.1992   -1.9502    0.8710 H   0  0  0  0  0  0  0  0  0  0  0  0
   -8.0433    1.2229    0.4015 H   0  0  0  0  0  0  0  0  0  0  0  0
   -6.2457    2.7377   -0.3692 H   0  0  0  0  0  0  0  0  0  0  0  0
   -2.8223    0.4461    2.0174 H   0  0  0  0  0  0  0  0  0  0  0  0
   -2.4934   -1.8144    2.4826 H   0  0  0  0  0  0  0  0  0  0  0  0
   -1.1486   -1.9443    1.4821 H   0  0  0  0  0  0  0  0  0  0  0  0
   -0.4086    1.0298    1.8613 H   0  0  0  0  0  0  0  0  0  0  0  0
   -1.4459    1.7459    0.6239 H   0  0  0  0  0  0  0  0  0  0  0  0
  2  1  1  6
  2  3  1  0
  3  4  1  0
  4  5  1  0
  5  6  2  0
  6  7  1  0
  7  8  1  0
  8  9  1  0
  8 10  2  0
  8 11  2  0
  7 12  1  0
 12 13  2  0
 13 14  1  0
  2 15  1  0
 15 16  1  0
 16 17  1  0
 17 18  1  0
 18 19  2  0
 19 20  1  0
 20 21  1  0
 20 22  2  0
 22 23  1  0
 23 24  2  0
 24 25  1  0
 17 26  1  0
 26 27  1  0
 26 28  1  0
 28  2  1  0
 14  3  1  0
 24 18  1  0
 13  5  1  0
  1 29  1  0
  1 30  1  0
  1 31  1  0
  4 32  1  0
  4 33  1  0
  6 34  1  0
  9 35  1  0
  9 36  1  0
  9 37  1  0
 14 38  1  0
 14 39  1  0
 15 40  1  0
 15 41  1  0
 17 42  1  6
 19 43  1  0
 22 44  1  0
 23 45  1  0
 26 46  1  1
 27 47  1  0
 27 48  1  0
 28 49  1  0
 28 50  1  0
M  END
$$$$
