
     RDKit          3D

 43 45  0  0  0  0  0  0  0  0999 V2000
    4.0407    0.4535    3.9849 N   0  0  0  0  0  0  0  0  0  0  0  0
    4.0059    0.1242    2.8761 C   0  0  0  0  0  0  0  0  0  0  0  0
    3.9605   -0.2943    1.4657 C   0  0  2  0  0  0  0  0  0  0  0  0
    5.0306    0.4195    0.6415 C   0  0  0  0  0  0  0  0  0  0  0  0
    4.3160    1.5783   -0.0462 C   0  0  0  0  0  0  0  0  0  0  0  0
    2.8386    1.1789   -0.0958 C   0  0  2  0  0  0  0  0  0  0  0  0
    1.9743    2.3207    0.2483 C   0  0  0  0  0  0  0  0  0  0  0  0
    1.2942    3.2172    0.5182 N   0  0  0  0  0  0  0  0  0  0  0  0
    2.6882    0.0984    0.8750 N   0  0  0  0  0  0  0  0  0  0  0  0
    1.4714   -0.6467    1.0987 C   0  0  0  0  0  0  0  0  0  0  0  0
    1.4551   -1.5568    1.9727 O   0  0  0  0  0  0  0  0  0  0  0  0
    0.2081   -0.3257    0.3440 C   0  0  0  0  0  0  0  0  0  0  0  0
   -0.7657   -1.4233    0.4598 N   0  0  0  0  0  0  0  0  0  0  0  0
   -1.8619   -1.3208   -0.5258 C   0  0  0  0  0  0  0  0  0  0  0  0
   -2.6314   -0.0010   -0.4350 C   0  0  0  0  0  0  0  0  0  0  0  0
   -2.2913    1.0999   -1.2479 C   0  0  0  0  0  0  0  0  0  0  0  0
   -2.9547    2.3218   -1.1031 C   0  0  0  0  0  0  0  0  0  0  0  0
   -3.9450    2.4711   -0.1307 C   0  0  0  0  0  0  0  0  0  0  0  0
   -4.2626    1.4033    0.7103 C   0  0  0  0  0  0  0  0  0  0  0  0
   -3.6011    0.1798    0.5709 C   0  0  0  0  0  0  0  0  0  0  0  0
   -1.4208   -1.7583   -1.9369 C   0  0  0  0  0  0  0  0  0  0  0  0
   -2.2876   -3.0026   -1.8357 C   0  0  0  0  0  0  0  0  0  0  0  0
   -2.7670   -2.5651   -0.4618 C   0  0  0  0  0  0  0  0  0  0  0  0
    4.1011   -1.3954    1.3987 H   0  0  0  0  0  0  0  0  0  0  0  0
    5.4171   -0.2777   -0.1347 H   0  0  0  0  0  0  0  0  0  0  0  0
    5.8907    0.7748    1.2523 H   0  0  0  0  0  0  0  0  0  0  0  0
    4.4721    2.5003    0.5593 H   0  0  0  0  0  0  0  0  0  0  0  0
    4.7216    1.7489   -1.0673 H   0  0  0  0  0  0  0  0  0  0  0  0
    2.5854    0.8086   -1.1125 H   0  0  0  0  0  0  0  0  0  0  0  0
   -0.2227    0.6097    0.7630 H   0  0  0  0  0  0  0  0  0  0  0  0
    0.4665   -0.1543   -0.7216 H   0  0  0  0  0  0  0  0  0  0  0  0
   -1.1845   -1.3851    1.4197 H   0  0  0  0  0  0  0  0  0  0  0  0
   -1.4986    1.0271   -1.9802 H   0  0  0  0  0  0  0  0  0  0  0  0
   -2.6910    3.1581   -1.7376 H   0  0  0  0  0  0  0  0  0  0  0  0
   -4.4545    3.4193   -0.0179 H   0  0  0  0  0  0  0  0  0  0  0  0
   -5.0146    1.5266    1.4790 H   0  0  0  0  0  0  0  0  0  0  0  0
   -3.8410   -0.6245    1.2548 H   0  0  0  0  0  0  0  0  0  0  0  0
   -0.3413   -2.0149   -2.0123 H   0  0  0  0  0  0  0  0  0  0  0  0
   -1.7723   -1.1026   -2.7616 H   0  0  0  0  0  0  0  0  0  0  0  0
   -1.6874   -3.9380   -1.7986 H   0  0  0  0  0  0  0  0  0  0  0  0
   -3.1050   -3.0191   -2.5897 H   0  0  0  0  0  0  0  0  0  0  0  0
   -2.4788   -3.2891    0.3324 H   0  0  0  0  0  0  0  0  0  0  0  0
   -3.8571   -2.3446   -0.4725 H   0  0  0  0  0  0  0  0  0  0  0  0
  1  2  3  0
  2  3  1  0
  3  4  1  0
  4  5  1  0
  5  6  1  0
  6  7  1  0
  7  8  3  0
  6  9  1  0
  9 10  1  0
 10 11  2  0
 10 12  1  0
 12 13  1  0
 13 14  1  0
 14 15  1  0
 15 16  2  0
 16 17  1  0
 17 18  2  0
 18 19  1  0
 19 20  2  0
 14 21  1  0
 21 22  1  0
 22 23  1  0
  9  3  1  0
 23 14  1  0
 20 15  1  0
  3 24  1  1
  4 25  1  0
  4 26  1  0
  5 27  1  0
  5 28  1  0
  6 29  1  6
 12 30  1  0
 12 31  1  0
 13 32  1  0
 16 33  1  0
 17 34  1  0
 18 35  1  0
 19 36  1  0
 20 37  1  0
 21 38  1  0
 21 39  1  0
 22 40  1  0
 22 41  1  0
 23 42  1  0
 23 43  1  0
M  END
$$$$
