
     RDKit          3D

 47 50  0  0  0  0  0  0  0  0999 V2000
    2.2318   -1.5528    3.0745 N   0  0  0  0  0  0  0  0  0  0  0  0
    2.9130   -1.0781    2.2683 C   0  0  0  0  0  0  0  0  0  0  0  0
    3.7770   -0.4736    1.2395 C   0  0  2  0  0  0  0  0  0  0  0  0
    4.1994    0.9431    1.6369 C   0  0  0  0  0  0  0  0  0  0  0  0
    4.0626    1.7827    0.3688 C   0  0  2  0  0  0  0  0  0  0  0  0
    3.6008    3.0555    0.6599 F   0  0  0  0  0  0  0  0  0  0  0  0
    3.0797    1.0346   -0.5220 C   0  0  0  0  0  0  0  0  0  0  0  0
    3.0536   -0.3284   -0.0160 N   0  0  0  0  0  0  0  0  0  0  0  0
    2.4734   -1.4381   -0.7288 C   0  0  0  0  0  0  0  0  0  0  0  0
    2.8162   -2.6157   -0.4367 O   0  0  0  0  0  0  0  0  0  0  0  0
    1.4006   -1.2339   -1.7629 C   0  0  0  0  0  0  0  0  0  0  0  0
    0.0839   -1.5870   -1.2127 N   0  0  0  0  0  0  0  0  0  0  0  0
   -0.4424   -0.5738   -0.2701 C   0  0  0  0  0  0  0  0  0  0  0  0
   -1.4789   -1.2077    0.6912 C   0  0  0  0  0  0  0  0  0  0  0  0
   -1.8359   -0.1756    1.7874 C   0  0  0  0  0  0  0  0  0  0  0  0
   -2.4462    1.0866    1.1353 C   0  0  0  0  0  0  0  0  0  0  0  0
   -1.4375    1.7025    0.1355 C   0  0  0  0  0  0  0  0  0  0  0  0
   -1.0908    0.6666   -0.9612 C   0  0  0  0  0  0  0  0  0  0  0  0
   -2.3971    0.2895   -1.7044 C   0  0  0  0  0  0  0  0  0  0  0  0
   -3.4065   -0.3428   -0.7186 C   0  0  0  0  0  0  0  0  0  0  0  0
   -4.5700   -0.6933   -1.4268 O   0  0  0  0  0  0  0  0  0  0  0  0
   -3.7381    0.6951    0.3862 C   0  0  0  0  0  0  0  0  0  0  0  0
   -2.7668   -1.6003   -0.0719 C   0  0  0  0  0  0  0  0  0  0  0  0
    4.6728   -1.1127    1.0810 H   0  0  0  0  0  0  0  0  0  0  0  0
    3.5315    1.3617    2.4243 H   0  0  0  0  0  0  0  0  0  0  0  0
    5.2455    0.9578    2.0133 H   0  0  0  0  0  0  0  0  0  0  0  0
    5.0499    1.8541   -0.1387 H   0  0  0  0  0  0  0  0  0  0  0  0
    3.4292    1.0523   -1.5772 H   0  0  0  0  0  0  0  0  0  0  0  0
    2.0637    1.4794   -0.4498 H   0  0  0  0  0  0  0  0  0  0  0  0
    1.6238   -1.9048   -2.6213 H   0  0  0  0  0  0  0  0  0  0  0  0
    1.4033   -0.2022   -2.1676 H   0  0  0  0  0  0  0  0  0  0  0  0
   -0.5719   -1.7396   -2.0093 H   0  0  0  0  0  0  0  0  0  0  0  0
    0.3961   -0.2150    0.3671 H   0  0  0  0  0  0  0  0  0  0  0  0
   -1.0408   -2.1108    1.1700 H   0  0  0  0  0  0  0  0  0  0  0  0
   -0.9260    0.0991    2.3654 H   0  0  0  0  0  0  0  0  0  0  0  0
   -2.5587   -0.6197    2.5068 H   0  0  0  0  0  0  0  0  0  0  0  0
   -2.6872    1.8314    1.9245 H   0  0  0  0  0  0  0  0  0  0  0  0
   -0.5146    2.0150    0.6722 H   0  0  0  0  0  0  0  0  0  0  0  0
   -1.8717    2.6164   -0.3265 H   0  0  0  0  0  0  0  0  0  0  0  0
   -0.3811    1.1310   -1.6770 H   0  0  0  0  0  0  0  0  0  0  0  0
   -2.8403    1.2040   -2.1578 H   0  0  0  0  0  0  0  0  0  0  0  0
   -2.1967   -0.4000   -2.5496 H   0  0  0  0  0  0  0  0  0  0  0  0
   -5.2087   -1.0928   -0.7797 H   0  0  0  0  0  0  0  0  0  0  0  0
   -4.2023    1.5998   -0.0651 H   0  0  0  0  0  0  0  0  0  0  0  0
   -4.4729    0.2707    1.1057 H   0  0  0  0  0  0  0  0  0  0  0  0
   -3.4844   -2.0699    0.6367 H   0  0  0  0  0  0  0  0  0  0  0  0
   -2.5401   -2.3601   -0.8503 H   0  0  0  0  0  0  0  0  0  0  0  0
  1  2  3  0
  2  3  1  0
  3  4  1  0
  4  5  1  0
  5  6  1  0
  5  7  1  0
  7  8  1  0
  8  9  1  0
  9 10  2  0
  9 11  1  0
 11 12  1  0
 12 13  1  0
 13 14  1  0
 14 15  1  0
 15 16  1  0
 16 17  1  0
 17 18  1  0
 18 19  1  0
 19 20  1  0
 20 21  1  0
 20 22  1  0
 20 23  1  0
  8  3  1  0
 18 13  1  0
 23 14  1  0
 22 16  1  0
  3 24  1  6
  4 25  1  0
  4 26  1  0
  5 27  1  6
  7 28  1  0
  7 29  1  0
 11 30  1  0
 11 31  1  0
 12 32  1  0
 13 33  1  0
 14 34  1  0
 15 35  1  0
 15 36  1  0
 16 37  1  0
 17 38  1  0
 17 39  1  0
 18 40  1  0
 19 41  1  0
 19 42  1  0
 21 43  1  0
 22 44  1  0
 22 45  1  0
 23 46  1  0
 23 47  1  0
M  END
$$$$
