
     RDKit          3D

 58 61  0  0  0  0  0  0  0  0999 V2000
    6.4874    0.4182    1.3159 C   0  0  0  0  0  0  0  0  0  0  0  0
    5.9128   -0.1955    0.0852 C   0  0  0  0  0  0  0  0  0  0  0  0
    6.4775   -1.1949   -0.4368 O   0  0  0  0  0  0  0  0  0  0  0  0
    4.7257    0.3179   -0.4488 O   0  0  0  0  0  0  0  0  0  0  0  0
    4.0615   -0.2435   -1.5830 C   0  0  1  0  0  0  0  0  0  0  0  0
    3.3789   -1.5873   -1.2193 C   0  0  0  0  0  0  0  0  0  0  0  0
    1.8408   -1.5290   -1.1066 C   0  0  0  0  0  0  0  0  0  0  0  0
    1.2920   -0.2129   -0.4847 C   0  0  1  0  0  0  0  0  0  0  0  0
    1.7696   -0.0943    0.9903 C   0  0  0  0  0  0  0  0  0  0  0  0
    1.8524    0.9718   -1.2788 C   0  0  0  0  0  0  0  0  0  0  0  0
    1.1861    2.1459   -1.3658 C   0  0  0  0  0  0  0  0  0  0  0  0
   -0.2457    2.3445   -0.9292 C   0  0  0  0  0  0  0  0  0  0  0  0
   -0.8278    1.1888   -0.0892 C   0  0  2  0  0  0  0  0  0  0  0  0
   -0.2773   -0.1827   -0.5941 C   0  0  2  0  0  0  0  0  0  0  0  0
   -1.0063   -1.4176    0.0414 C   0  0  0  0  0  0  0  0  0  0  0  0
   -2.5538   -1.2991    0.0930 C   0  0  0  0  0  0  0  0  0  0  0  0
   -2.9908    0.0566    0.6909 C   0  0  2  0  0  0  0  0  0  0  0  0
   -2.6003    0.1490    2.1955 C   0  0  0  0  0  0  0  0  0  0  0  0
   -4.4463    0.4608    0.5799 C   0  0  0  0  0  0  0  0  0  0  0  0
   -5.6484   -0.3647    0.8716 C   0  0  0  0  0  0  0  0  0  0  0  0
   -5.5697   -1.8253    1.1862 C   0  0  0  0  0  0  0  0  0  0  0  0
   -6.7890    0.1721    0.8273 O   0  0  0  0  0  0  0  0  0  0  0  0
   -4.5271    1.7739    0.3308 C   0  0  0  0  0  0  0  0  0  0  0  0
   -3.1872    2.3927    0.0952 C   0  0  0  0  0  0  0  0  0  0  0  0
   -2.3605    1.1479   -0.1932 C   0  0  1  0  0  0  0  0  0  0  0  0
    3.0839    0.7924   -2.1461 C   0  0  0  0  0  0  0  0  0  0  0  0
    7.5968    0.3961    1.2715 H   0  0  0  0  0  0  0  0  0  0  0  0
    6.1528    1.4730    1.4046 H   0  0  0  0  0  0  0  0  0  0  0  0
    6.1437   -0.1487    2.2058 H   0  0  0  0  0  0  0  0  0  0  0  0
    4.8230   -0.4335   -2.3731 H   0  0  0  0  0  0  0  0  0  0  0  0
    3.7935   -1.9768   -0.2645 H   0  0  0  0  0  0  0  0  0  0  0  0
    3.6369   -2.3427   -1.9936 H   0  0  0  0  0  0  0  0  0  0  0  0
    1.4147   -1.6529   -2.1274 H   0  0  0  0  0  0  0  0  0  0  0  0
    1.5146   -2.4060   -0.5076 H   0  0  0  0  0  0  0  0  0  0  0  0
    1.5270    0.8948    1.4268 H   0  0  0  0  0  0  0  0  0  0  0  0
    1.3374   -0.8863    1.6309 H   0  0  0  0  0  0  0  0  0  0  0  0
    2.8667   -0.1955    1.0750 H   0  0  0  0  0  0  0  0  0  0  0  0
    1.6164    2.9547   -1.9506 H   0  0  0  0  0  0  0  0  0  0  0  0
   -0.8447    2.4732   -1.8570 H   0  0  0  0  0  0  0  0  0  0  0  0
   -0.3173    3.2925   -0.3539 H   0  0  0  0  0  0  0  0  0  0  0  0
   -0.5488    1.3713    0.9653 H   0  0  0  0  0  0  0  0  0  0  0  0
   -0.5206   -0.2387   -1.6818 H   0  0  0  0  0  0  0  0  0  0  0  0
   -0.7735   -2.3238   -0.5566 H   0  0  0  0  0  0  0  0  0  0  0  0
   -0.6349   -1.6182    1.0631 H   0  0  0  0  0  0  0  0  0  0  0  0
   -2.9323   -2.1399    0.7076 H   0  0  0  0  0  0  0  0  0  0  0  0
   -2.9685   -1.4169   -0.9327 H   0  0  0  0  0  0  0  0  0  0  0  0
   -1.5260   -0.0426    2.3783 H   0  0  0  0  0  0  0  0  0  0  0  0
   -2.8348    1.1497    2.6157 H   0  0  0  0  0  0  0  0  0  0  0  0
   -3.1661   -0.6013    2.7847 H   0  0  0  0  0  0  0  0  0  0  0  0
   -5.2402   -2.3856    0.2872 H   0  0  0  0  0  0  0  0  0  0  0  0
   -4.8766   -2.0050    2.0316 H   0  0  0  0  0  0  0  0  0  0  0  0
   -6.5691   -2.2096    1.4821 H   0  0  0  0  0  0  0  0  0  0  0  0
   -5.4539    2.3325    0.2965 H   0  0  0  0  0  0  0  0  0  0  0  0
   -3.2129    3.0807   -0.7769 H   0  0  0  0  0  0  0  0  0  0  0  0
   -2.8332    2.9226    1.0051 H   0  0  0  0  0  0  0  0  0  0  0  0
   -2.5888    0.9045   -1.2631 H   0  0  0  0  0  0  0  0  0  0  0  0
    3.6261    1.7573   -2.2626 H   0  0  0  0  0  0  0  0  0  0  0  0
    2.7543    0.4712   -3.1581 H   0  0  0  0  0  0  0  0  0  0  0  0
  1  2  1  0
  2  3  2  0
  2  4  1  0
  4  5  1  0
  5  6  1  0
  6  7  1  0
  7  8  1  0
  8  9  1  1
  8 10  1  0
 10 11  2  0
 11 12  1  0
 12 13  1  0
 13 14  1  0
 14 15  1  0
 15 16  1  0
 16 17  1  0
 17 18  1  1
 17 19  1  0
 19 20  1  0
 20 21  1  0
 20 22  2  0
 19 23  2  0
 23 24  1  0
 24 25  1  0
 10 26  1  0
 26  5  1  0
 14  8  1  0
 25 17  1  0
 25 13  1  0
  1 27  1  0
  1 28  1  0
  1 29  1  0
  5 30  1  6
  6 31  1  0
  6 32  1  0
  7 33  1  0
  7 34  1  0
  9 35  1  0
  9 36  1  0
  9 37  1  0
 11 38  1  0
 12 39  1  0
 12 40  1  0
 13 41  1  1
 14 42  1  6
 15 43  1  0
 15 44  1  0
 16 45  1  0
 16 46  1  0
 18 47  1  0
 18 48  1  0
 18 49  1  0
 21 50  1  0
 21 51  1  0
 21 52  1  0
 23 53  1  0
 24 54  1  0
 24 55  1  0
 25 56  1  6
 26 57  1  0
 26 58  1  0
M  END
$$$$
