
     RDKit          3D

 48 51  0  0  0  0  0  0  0  0999 V2000
   -1.3630    3.1289   -0.4217 N   0  0  0  0  0  0  0  0  0  0  0  0
   -0.3045    2.2291    0.0524 C   0  0  1  0  0  0  0  0  0  0  0  0
    0.6948    2.9661    0.9633 C   0  0  0  0  0  0  0  0  0  0  0  0
    0.6783    2.3239    2.2883 N   0  0  0  0  0  0  0  0  0  0  0  0
    1.9295    1.5946    2.6234 C   0  0  0  0  0  0  0  0  0  0  0  0
    2.1442    0.3127    1.8394 C   0  0  0  0  0  0  0  0  0  0  0  0
    1.7432   -0.9232    2.3757 C   0  0  0  0  0  0  0  0  0  0  0  0
    1.8646   -2.0639    1.6470 N   0  0  0  0  0  0  0  0  0  0  0  0
    2.3845   -2.0599    0.3918 C   0  0  0  0  0  0  0  0  0  0  0  0
    2.4778   -3.2525   -0.3345 C   0  0  0  0  0  0  0  0  0  0  0  0
    3.0153   -3.2448   -1.6254 C   0  0  0  0  0  0  0  0  0  0  0  0
    3.4635   -2.0477   -2.1934 C   0  0  0  0  0  0  0  0  0  0  0  0
    3.3757   -0.8513   -1.4742 C   0  0  0  0  0  0  0  0  0  0  0  0
    2.8345   -0.8501   -0.1797 C   0  0  0  0  0  0  0  0  0  0  0  0
    2.7238    0.3329    0.5606 C   0  0  0  0  0  0  0  0  0  0  0  0
   -0.5389    1.5037    2.3432 C   0  0  0  0  0  0  0  0  0  0  0  0
   -0.8541    1.0836    0.9098 C   0  0  1  0  0  0  0  0  0  0  0  0
   -2.3101    0.7409    0.6601 C   0  0  0  0  0  0  0  0  0  0  0  0
   -3.2128    1.3210    1.3240 O   0  0  0  0  0  0  0  0  0  0  0  0
   -2.6840   -0.1980   -0.3655 N   0  0  0  0  0  0  0  0  0  0  0  0
   -1.7449   -0.8780   -1.2432 C   0  0  0  0  0  0  0  0  0  0  0  0
   -2.5986   -1.6116   -2.2684 C   0  0  0  0  0  0  0  0  0  0  0  0
   -4.0054   -1.6651   -1.6789 C   0  0  0  0  0  0  0  0  0  0  0  0
   -4.0652   -0.5522   -0.6411 C   0  0  0  0  0  0  0  0  0  0  0  0
   -1.8122    3.6044    0.3954 H   0  0  0  0  0  0  0  0  0  0  0  0
   -0.9252    3.8712   -1.0145 H   0  0  0  0  0  0  0  0  0  0  0  0
    0.2287    1.8071   -0.8291 H   0  0  0  0  0  0  0  0  0  0  0  0
    1.7051    2.9871    0.5061 H   0  0  0  0  0  0  0  0  0  0  0  0
    0.4027    4.0304    1.0947 H   0  0  0  0  0  0  0  0  0  0  0  0
    1.9204    1.3636    3.7108 H   0  0  0  0  0  0  0  0  0  0  0  0
    2.8033    2.2671    2.4783 H   0  0  0  0  0  0  0  0  0  0  0  0
    1.3177   -0.9787    3.3690 H   0  0  0  0  0  0  0  0  0  0  0  0
    2.1340   -4.1841    0.0978 H   0  0  0  0  0  0  0  0  0  0  0  0
    3.0854   -4.1677   -2.1864 H   0  0  0  0  0  0  0  0  0  0  0  0
    3.8789   -2.0473   -3.1928 H   0  0  0  0  0  0  0  0  0  0  0  0
    3.7247    0.0682   -1.9286 H   0  0  0  0  0  0  0  0  0  0  0  0
    3.0851    1.2618    0.1400 H   0  0  0  0  0  0  0  0  0  0  0  0
   -0.4390    0.6278    3.0188 H   0  0  0  0  0  0  0  0  0  0  0  0
   -1.3528    2.1399    2.7533 H   0  0  0  0  0  0  0  0  0  0  0  0
   -0.2539    0.1758    0.6994 H   0  0  0  0  0  0  0  0  0  0  0  0
   -1.1396   -1.6024   -0.6559 H   0  0  0  0  0  0  0  0  0  0  0  0
   -1.0795   -0.1453   -1.7483 H   0  0  0  0  0  0  0  0  0  0  0  0
   -2.6177   -1.0347   -3.2193 H   0  0  0  0  0  0  0  0  0  0  0  0
   -2.2045   -2.6316   -2.4685 H   0  0  0  0  0  0  0  0  0  0  0  0
   -4.7791   -1.5278   -2.4653 H   0  0  0  0  0  0  0  0  0  0  0  0
   -4.1608   -2.6477   -1.1813 H   0  0  0  0  0  0  0  0  0  0  0  0
   -4.6024    0.3322   -1.0474 H   0  0  0  0  0  0  0  0  0  0  0  0
   -4.5673   -0.9084    0.2847 H   0  0  0  0  0  0  0  0  0  0  0  0
  1  2  1  0
  2  3  1  0
  3  4  1  0
  4  5  1  0
  5  6  1  0
  6  7  2  0
  7  8  1  0
  8  9  2  0
  9 10  1  0
 10 11  2  0
 11 12  1  0
 12 13  2  0
 13 14  1  0
 14 15  2  0
  4 16  1  0
 16 17  1  0
 17 18  1  0
 18 19  2  0
 18 20  1  0
 20 21  1  0
 21 22  1  0
 22 23  1  0
 23 24  1  0
 17  2  1  0
 24 20  1  0
 15  6  1  0
 14  9  1  0
  1 25  1  0
  1 26  1  0
  2 27  1  6
  3 28  1  0
  3 29  1  0
  5 30  1  0
  5 31  1  0
  7 32  1  0
 10 33  1  0
 11 34  1  0
 12 35  1  0
 13 36  1  0
 15 37  1  0
 16 38  1  0
 16 39  1  0
 17 40  1  6
 21 41  1  0
 21 42  1  0
 22 43  1  0
 22 44  1  0
 23 45  1  0
 23 46  1  0
 24 47  1  0
 24 48  1  0
M  END
$$$$
