
     RDKit          3D

 71 74  0  0  0  0  0  0  0  0999 V2000
    0.6878    0.0000    0.0000 Cl  0  0  0  0  0  0  0  0  0  0  0  0
    0.3454    0.5046   -1.5894 N   0  0  0  0  0  0  0  0  0  0  0  0
    1.1373   -0.2113   -0.5826 C   0  0  1  0  0  0  0  0  0  0  0  0
    1.5541   -1.6222   -1.0521 C   0  0  0  0  0  0  0  0  0  0  0  0
    0.3449   -2.5001   -1.2277 C   0  0  0  0  0  0  0  0  0  0  0  0
   -0.1786   -2.5946   -2.3708 O   0  0  0  0  0  0  0  0  0  0  0  0
   -0.2776   -3.1496   -0.1039 N   0  0  0  0  0  0  0  0  0  0  0  0
    0.4081   -3.4575    1.1413 C   0  0  0  0  0  0  0  0  0  0  0  0
   -0.6481   -4.0594    2.0614 C   0  0  0  0  0  0  0  0  0  0  0  0
   -1.8455   -4.3946    1.1737 C   0  0  0  0  0  0  0  0  0  0  0  0
   -1.6719   -3.5690   -0.1022 C   0  0  1  0  0  0  0  0  0  0  0  0
   -2.5795   -2.3644   -0.1052 C   0  0  0  0  0  0  0  0  0  0  0  0
   -3.6278   -2.3828   -0.8053 O   0  0  0  0  0  0  0  0  0  0  0  0
   -2.2689   -1.2199    0.7045 N   0  0  0  0  0  0  0  0  0  0  0  0
   -3.0675    0.0106    0.6868 C   0  0  0  0  0  0  0  0  0  0  0  0
   -4.1932   -0.0438    1.7004 C   0  0  0  0  0  0  0  0  0  0  0  0
   -5.3671    0.6939    1.4644 C   0  0  0  0  0  0  0  0  0  0  0  0
   -6.4075    0.6896    2.3980 C   0  0  0  0  0  0  0  0  0  0  0  0
   -6.2841   -0.0419    3.5817 C   0  0  0  0  0  0  0  0  0  0  0  0
   -7.2935   -0.0430    4.4868 F   0  0  0  0  0  0  0  0  0  0  0  0
   -5.1171   -0.7665    3.8356 C   0  0  0  0  0  0  0  0  0  0  0  0
   -4.0733   -0.7652    2.9056 C   0  0  0  0  0  0  0  0  0  0  0  0
   -2.1804    1.2160    0.9333 C   0  0  0  0  0  0  0  0  0  0  0  0
   -2.0774    2.2275   -0.0396 C   0  0  0  0  0  0  0  0  0  0  0  0
   -1.2231    3.3163    0.1578 C   0  0  0  0  0  0  0  0  0  0  0  0
   -0.4691    3.4128    1.3296 C   0  0  0  0  0  0  0  0  0  0  0  0
    0.3641    4.4660    1.5153 F   0  0  0  0  0  0  0  0  0  0  0  0
   -0.5747    2.4240    2.3104 C   0  0  0  0  0  0  0  0  0  0  0  0
   -1.4272    1.3331    2.1180 C   0  0  0  0  0  0  0  0  0  0  0  0
    2.3349    0.6045   -0.1476 C   0  0  0  0  0  0  0  0  0  0  0  0
    2.4975    0.7974    1.0886 O   0  0  0  0  0  0  0  0  0  0  0  0
    3.3240    1.1148   -1.0647 N   0  0  0  0  0  0  0  0  0  0  0  0
    3.1664    1.2565   -2.5160 C   0  0  0  0  0  0  0  0  0  0  0  0
    4.4418    1.8835   -2.9363 C   0  0  0  0  0  0  0  0  0  0  0  0
    4.8403    2.2344   -4.2274 C   0  0  0  0  0  0  0  0  0  0  0  0
    6.1028    2.8243   -4.4022 C   0  0  0  0  0  0  0  0  0  0  0  0
    6.9389    3.0527   -3.2922 C   0  0  0  0  0  0  0  0  0  0  0  0
    6.5163    2.6919   -2.0024 C   0  0  0  0  0  0  0  0  0  0  0  0
    5.2578    2.1064   -1.8534 C   0  0  0  0  0  0  0  0  0  0  0  0
    4.6082    1.6502   -0.6029 C   0  0  0  0  0  0  0  0  0  0  0  0
   -0.6878    0.0000    0.0000 H   0  0  0  0  0  0  0  0  0  0  0  0
    0.6567    0.2419   -2.5516 H   0  0  0  0  0  0  0  0  0  0  0  0
   -0.6474    0.1840   -1.5171 H   0  0  0  0  0  0  0  0  0  0  0  0
    0.4996   -0.3380    0.3220 H   0  0  0  0  0  0  0  0  0  0  0  0
    2.1113   -1.5694   -2.0099 H   0  0  0  0  0  0  0  0  0  0  0  0
    2.2429   -2.0799   -0.3110 H   0  0  0  0  0  0  0  0  0  0  0  0
    1.2202   -4.1910    0.9476 H   0  0  0  0  0  0  0  0  0  0  0  0
    0.8300   -2.5351    1.5956 H   0  0  0  0  0  0  0  0  0  0  0  0
   -0.9515   -3.3105    2.8259 H   0  0  0  0  0  0  0  0  0  0  0  0
   -0.2637   -4.9659    2.5775 H   0  0  0  0  0  0  0  0  0  0  0  0
   -1.8142   -5.4765    0.9165 H   0  0  0  0  0  0  0  0  0  0  0  0
   -2.8054   -4.1874    1.6976 H   0  0  0  0  0  0  0  0  0  0  0  0
   -1.8769   -4.2051   -0.9923 H   0  0  0  0  0  0  0  0  0  0  0  0
   -1.4839   -1.3008    1.3875 H   0  0  0  0  0  0  0  0  0  0  0  0
   -3.5221    0.1086   -0.3249 H   0  0  0  0  0  0  0  0  0  0  0  0
   -5.4755    1.2746    0.5565 H   0  0  0  0  0  0  0  0  0  0  0  0
   -7.3084    1.2575    2.2040 H   0  0  0  0  0  0  0  0  0  0  0  0
   -5.0181   -1.3274    4.7561 H   0  0  0  0  0  0  0  0  0  0  0  0
   -3.1764   -1.3263    3.1323 H   0  0  0  0  0  0  0  0  0  0  0  0
   -2.6450    2.1674   -0.9597 H   0  0  0  0  0  0  0  0  0  0  0  0
   -1.1428    4.0832   -0.6019 H   0  0  0  0  0  0  0  0  0  0  0  0
    0.0076    2.4992    3.2196 H   0  0  0  0  0  0  0  0  0  0  0  0
   -1.4886    0.5760    2.8885 H   0  0  0  0  0  0  0  0  0  0  0  0
    3.0548    0.2679   -3.0042 H   0  0  0  0  0  0  0  0  0  0  0  0
    2.3209    1.9362   -2.7520 H   0  0  0  0  0  0  0  0  0  0  0  0
    4.1917    2.0559   -5.0753 H   0  0  0  0  0  0  0  0  0  0  0  0
    6.4339    3.1049   -5.3936 H   0  0  0  0  0  0  0  0  0  0  0  0
    7.9105    3.5081   -3.4333 H   0  0  0  0  0  0  0  0  0  0  0  0
    7.1525    2.8644   -1.1440 H   0  0  0  0  0  0  0  0  0  0  0  0
    5.2093    0.8509   -0.1193 H   0  0  0  0  0  0  0  0  0  0  0  0
    4.4483    2.5073    0.0857 H   0  0  0  0  0  0  0  0  0  0  0  0
  2  3  1  0
  3  4  1  0
  4  5  1  0
  5  6  2  0
  5  7  1  0
  7  8  1  0
  8  9  1  0
  9 10  1  0
 10 11  1  0
 11 12  1  0
 12 13  2  0
 12 14  1  0
 14 15  1  0
 15 16  1  0
 16 17  2  0
 17 18  1  0
 18 19  2  0
 19 20  1  0
 19 21  1  0
 21 22  2  0
 15 23  1  0
 23 24  2  0
 24 25  1  0
 25 26  2  0
 26 27  1  0
 26 28  1  0
 28 29  2  0
  3 30  1  0
 30 31  2  0
 30 32  1  0
 32 33  1  0
 33 34  1  0
 34 35  2  0
 35 36  1  0
 36 37  2  0
 37 38  1  0
 38 39  2  0
 39 40  1  0
 11  7  1  0
 22 16  1  0
 29 23  1  0
 40 32  1  0
 39 34  1  0
  1 41  1  0
  2 42  1  0
  2 43  1  0
  3 44  1  1
  4 45  1  0
  4 46  1  0
  8 47  1  0
  8 48  1  0
  9 49  1  0
  9 50  1  0
 10 51  1  0
 10 52  1  0
 11 53  1  6
 14 54  1  0
 15 55  1  0
 17 56  1  0
 18 57  1  0
 21 58  1  0
 22 59  1  0
 24 60  1  0
 25 61  1  0
 28 62  1  0
 29 63  1  0
 33 64  1  0
 33 65  1  0
 35 66  1  0
 36 67  1  0
 37 68  1  0
 38 69  1  0
 40 70  1  0
 40 71  1  0
M  END
$$$$
