
     RDKit          3D

 81 81  0  0  0  0  0  0  0  0999 V2000
    9.5140   -1.6235   -3.1382 C   0  0  0  0  0  0  0  0  0  0  0  0
    8.1676   -2.1800   -3.5726 C   0  0  0  0  0  0  0  0  0  0  0  0
    7.2183   -2.0042   -2.5261 O   0  0  0  0  0  0  0  0  0  0  0  0
    5.8887   -2.4198   -2.6366 C   0  0  0  0  0  0  0  0  0  0  0  0
    5.4789   -2.9763   -3.6931 O   0  0  0  0  0  0  0  0  0  0  0  0
    4.9778   -2.1945   -1.5029 C   0  0  0  0  0  0  0  0  0  0  0  0
    3.6980   -2.5896   -1.5214 C   0  0  0  0  0  0  0  0  0  0  0  0
    2.8235   -2.3858   -0.4445 O   0  0  0  0  0  0  0  0  0  0  0  0
    2.8595   -1.2966    0.4390 C   0  0  0  0  0  0  0  0  0  0  0  0
    3.5403   -0.2682    0.1765 O   0  0  0  0  0  0  0  0  0  0  0  0
    2.0662   -1.3529    1.7118 C   0  0  2  0  0  0  0  0  0  0  0  0
    2.7406   -2.2995    2.7053 C   0  0  0  0  0  0  0  0  0  0  0  0
    2.0162   -3.6294    2.5502 C   0  0  0  0  0  0  0  0  0  0  0  0
    0.6333   -3.2723    2.0255 C   0  0  0  0  0  0  0  0  0  0  0  0
    0.7434   -1.9279    1.4736 N   0  0  0  0  0  0  0  0  0  0  0  0
   -0.4335   -1.2136    1.0276 C   0  0  0  0  0  0  0  0  0  0  0  0
   -1.5693   -1.6658    1.3394 O   0  0  0  0  0  0  0  0  0  0  0  0
   -0.3938    0.0175    0.1392 C   0  0  2  0  0  0  0  0  0  0  0  0
    0.0035   -0.3173   -1.3166 C   0  0  0  0  0  0  0  0  0  0  0  0
   -0.8546   -1.4099   -1.9877 C   0  0  0  0  0  0  0  0  0  0  0  0
   -2.3606   -1.1013   -2.0604 C   0  0  0  0  0  0  0  0  0  0  0  0
   -2.6763    0.1569   -2.8796 C   0  0  0  0  0  0  0  0  0  0  0  0
   -4.1213    0.3152   -3.0295 N   0  0  0  0  0  0  0  0  0  0  0  0
   -4.9640    0.7607   -1.9609 C   0  0  0  0  0  0  0  0  0  0  0  0
   -4.4620    1.0601   -0.8435 O   0  0  0  0  0  0  0  0  0  0  0  0
   -6.3454    0.8615   -2.1833 O   0  0  0  0  0  0  0  0  0  0  0  0
   -7.3316    1.2784   -1.2269 C   0  0  0  0  0  0  0  0  0  0  0  0
   -7.0671    2.7260   -0.7701 C   0  0  0  0  0  0  0  0  0  0  0  0
   -8.6972    1.2216   -1.9285 C   0  0  0  0  0  0  0  0  0  0  0  0
   -7.3533    0.3229   -0.0183 C   0  0  0  0  0  0  0  0  0  0  0  0
    0.4834    1.0516    0.6930 N   0  0  0  0  0  0  0  0  0  0  0  0
    0.1878    1.7312    1.9186 C   0  0  0  0  0  0  0  0  0  0  0  0
   -0.8718    1.4658    2.5486 O   0  0  0  0  0  0  0  0  0  0  0  0
    1.1008    2.6784    2.4044 O   0  0  0  0  0  0  0  0  0  0  0  0
    1.0082    3.3857    3.6497 C   0  0  0  0  0  0  0  0  0  0  0  0
   -0.2530    4.2701    3.6801 C   0  0  0  0  0  0  0  0  0  0  0  0
    1.0095    2.3988    4.8330 C   0  0  0  0  0  0  0  0  0  0  0  0
    2.2484    4.2863    3.7535 C   0  0  0  0  0  0  0  0  0  0  0  0
    9.8706   -2.1573   -2.2320 H   0  0  0  0  0  0  0  0  0  0  0  0
    9.4212   -0.5403   -2.9109 H   0  0  0  0  0  0  0  0  0  0  0  0
   10.2564   -1.7591   -3.9527 H   0  0  0  0  0  0  0  0  0  0  0  0
    8.2751   -3.2620   -3.8043 H   0  0  0  0  0  0  0  0  0  0  0  0
    7.8254   -1.6435   -4.4841 H   0  0  0  0  0  0  0  0  0  0  0  0
    5.3869   -1.7207   -0.6210 H   0  0  0  0  0  0  0  0  0  0  0  0
    3.3143   -3.1291   -2.3779 H   0  0  0  0  0  0  0  0  0  0  0  0
    1.9869   -0.3495    2.1787 H   0  0  0  0  0  0  0  0  0  0  0  0
    3.8352   -2.4094    2.5359 H   0  0  0  0  0  0  0  0  0  0  0  0
    2.5813   -1.9203    3.7393 H   0  0  0  0  0  0  0  0  0  0  0  0
    1.9587   -4.1761    3.5164 H   0  0  0  0  0  0  0  0  0  0  0  0
    2.5497   -4.2576    1.8031 H   0  0  0  0  0  0  0  0  0  0  0  0
   -0.0999   -3.2784    2.8617 H   0  0  0  0  0  0  0  0  0  0  0  0
    0.3129   -3.9872    1.2370 H   0  0  0  0  0  0  0  0  0  0  0  0
   -1.4163    0.4536    0.1005 H   0  0  0  0  0  0  0  0  0  0  0  0
   -0.0392    0.6101   -1.9261 H   0  0  0  0  0  0  0  0  0  0  0  0
    1.0576   -0.6488   -1.3515 H   0  0  0  0  0  0  0  0  0  0  0  0
   -0.4730   -1.5710   -3.0195 H   0  0  0  0  0  0  0  0  0  0  0  0
   -0.7134   -2.3697   -1.4454 H   0  0  0  0  0  0  0  0  0  0  0  0
   -2.7841   -1.0126   -1.0393 H   0  0  0  0  0  0  0  0  0  0  0  0
   -2.8635   -1.9684   -2.5416 H   0  0  0  0  0  0  0  0  0  0  0  0
   -2.2585    1.0632   -2.3925 H   0  0  0  0  0  0  0  0  0  0  0  0
   -2.2157    0.0625   -3.8871 H   0  0  0  0  0  0  0  0  0  0  0  0
   -4.5514    0.1443   -3.9661 H   0  0  0  0  0  0  0  0  0  0  0  0
   -6.1326    2.7999   -0.1777 H   0  0  0  0  0  0  0  0  0  0  0  0
   -6.9757    3.3954   -1.6521 H   0  0  0  0  0  0  0  0  0  0  0  0
   -7.9000    3.0924   -0.1317 H   0  0  0  0  0  0  0  0  0  0  0  0
   -8.9071    0.1883   -2.2798 H   0  0  0  0  0  0  0  0  0  0  0  0
   -8.7041    1.8941   -2.8132 H   0  0  0  0  0  0  0  0  0  0  0  0
   -9.5129    1.5337   -1.2406 H   0  0  0  0  0  0  0  0  0  0  0  0
   -6.4179    0.3958    0.5729 H   0  0  0  0  0  0  0  0  0  0  0  0
   -7.4681   -0.7274   -0.3622 H   0  0  0  0  0  0  0  0  0  0  0  0
   -8.1997    0.5688    0.6590 H   0  0  0  0  0  0  0  0  0  0  0  0
    1.3368    1.3472    0.1673 H   0  0  0  0  0  0  0  0  0  0  0  0
   -0.2862    4.9210    2.7802 H   0  0  0  0  0  0  0  0  0  0  0  0
   -0.2555    4.9157    4.5849 H   0  0  0  0  0  0  0  0  0  0  0  0
   -1.1775    3.6582    3.7025 H   0  0  0  0  0  0  0  0  0  0  0  0
    0.0860    1.7847    4.8489 H   0  0  0  0  0  0  0  0  0  0  0  0
    1.8818    1.7143    4.7599 H   0  0  0  0  0  0  0  0  0  0  0  0
    1.0673    2.9463    5.7986 H   0  0  0  0  0  0  0  0  0  0  0  0
    2.2426    4.8661    4.7020 H   0  0  0  0  0  0  0  0  0  0  0  0
    2.2782    5.0005    2.9025 H   0  0  0  0  0  0  0  0  0  0  0  0
    3.1742    3.6722    3.7202 H   0  0  0  0  0  0  0  0  0  0  0  0
  1  2  1  0
  2  3  1  0
  3  4  1  0
  4  5  2  0
  4  6  1  0
  6  7  2  0
  7  8  1  0
  8  9  1  0
  9 10  2  0
  9 11  1  0
 11 12  1  0
 12 13  1  0
 13 14  1  0
 14 15  1  0
 15 16  1  0
 16 17  2  0
 16 18  1  0
 18 19  1  0
 19 20  1  0
 20 21  1  0
 21 22  1  0
 22 23  1  0
 23 24  1  0
 24 25  2  0
 24 26  1  0
 26 27  1  0
 27 28  1  0
 27 29  1  0
 27 30  1  0
 18 31  1  0
 31 32  1  0
 32 33  2  0
 32 34  1  0
 34 35  1  0
 35 36  1  0
 35 37  1  0
 35 38  1  0
 15 11  1  0
  1 39  1  0
  1 40  1  0
  1 41  1  0
  2 42  1  0
  2 43  1  0
  6 44  1  0
  7 45  1  0
 11 46  1  1
 12 47  1  0
 12 48  1  0
 13 49  1  0
 13 50  1  0
 14 51  1  0
 14 52  1  0
 18 53  1  6
 19 54  1  0
 19 55  1  0
 20 56  1  0
 20 57  1  0
 21 58  1  0
 21 59  1  0
 22 60  1  0
 22 61  1  0
 23 62  1  0
 28 63  1  0
 28 64  1  0
 28 65  1  0
 29 66  1  0
 29 67  1  0
 29 68  1  0
 30 69  1  0
 30 70  1  0
 30 71  1  0
 31 72  1  0
 36 73  1  0
 36 74  1  0
 36 75  1  0
 37 76  1  0
 37 77  1  0
 37 78  1  0
 38 79  1  0
 38 80  1  0
 38 81  1  0
M  END
$$$$
