
     RDKit          3D

 53 55  0  0  0  0  0  0  0  0999 V2000
    3.2347    1.3870   -3.6528 C   0  0  0  0  0  0  0  0  0  0  0  0
    2.5521    0.9247   -2.4919 O   0  0  0  0  0  0  0  0  0  0  0  0
    3.1765    0.3184   -1.3904 C   0  0  0  0  0  0  0  0  0  0  0  0
    4.5674    0.1144   -1.3371 C   0  0  0  0  0  0  0  0  0  0  0  0
    5.1518   -0.4959   -0.2220 C   0  0  0  0  0  0  0  0  0  0  0  0
    6.8973   -0.7265   -0.1545 S   0  0  0  0  0  0  0  0  0  0  0  0
    7.6368    0.6560    0.5728 N   0  0  0  0  0  0  0  0  0  0  0  0
    7.4411   -0.9132   -1.5433 O   0  0  0  0  0  0  0  0  0  0  0  0
    7.2186   -1.9511    0.6557 O   0  0  0  0  0  0  0  0  0  0  0  0
    4.3483   -0.9053    0.8478 C   0  0  0  0  0  0  0  0  0  0  0  0
    2.9545   -0.7169    0.8065 C   0  0  0  0  0  0  0  0  0  0  0  0
    2.1143   -1.1639    1.8387 O   0  0  0  0  0  0  0  0  0  0  0  0
    2.5615   -1.8188    3.0208 C   0  0  0  0  0  0  0  0  0  0  0  0
    2.3778   -0.0839   -0.3102 C   0  0  0  0  0  0  0  0  0  0  0  0
    0.9980    0.1294   -0.3754 O   0  0  0  0  0  0  0  0  0  0  0  0
    0.3153    1.0002    0.5235 C   0  0  0  0  0  0  0  0  0  0  0  0
   -1.1977    0.8473    0.3517 C   0  0  0  0  0  0  0  0  0  0  0  0
   -1.6889   -0.5733    0.7190 C   0  0  0  0  0  0  0  0  0  0  0  0
   -1.3930   -0.8477    2.1290 N   0  0  0  0  0  0  0  0  0  0  0  0
   -3.2009   -0.7730    0.4350 C   0  0  0  0  0  0  0  0  0  0  0  0
   -3.5157   -0.9359   -1.0680 C   0  0  0  0  0  0  0  0  0  0  0  0
   -4.9307   -0.9819   -1.2673 O   0  0  0  0  0  0  0  0  0  0  0  0
   -5.7878   -0.1499   -0.5398 C   0  0  0  0  0  0  0  0  0  0  0  0
   -7.1217    0.0161   -0.9248 C   0  0  0  0  0  0  0  0  0  0  0  0
   -7.9523    0.8789   -0.2005 C   0  0  0  0  0  0  0  0  0  0  0  0
   -7.4500    1.5716    0.9080 C   0  0  0  0  0  0  0  0  0  0  0  0
   -6.1190    1.3942    1.3027 C   0  0  0  0  0  0  0  0  0  0  0  0
   -5.2930    0.5215    0.5879 C   0  0  0  0  0  0  0  0  0  0  0  0
   -3.9700    0.3035    0.9842 O   0  0  0  0  0  0  0  0  0  0  0  0
    2.4964    1.8176   -4.3598 H   0  0  0  0  0  0  0  0  0  0  0  0
    3.7543    0.5421   -4.1522 H   0  0  0  0  0  0  0  0  0  0  0  0
    3.9651    2.1768   -3.3770 H   0  0  0  0  0  0  0  0  0  0  0  0
    5.2004    0.4317   -2.1543 H   0  0  0  0  0  0  0  0  0  0  0  0
    7.3543    1.4865    0.0056 H   0  0  0  0  0  0  0  0  0  0  0  0
    7.2022    0.7735    1.5155 H   0  0  0  0  0  0  0  0  0  0  0  0
    4.8136   -1.3754    1.7032 H   0  0  0  0  0  0  0  0  0  0  0  0
    1.6840   -2.0549    3.6570 H   0  0  0  0  0  0  0  0  0  0  0  0
    3.2448   -1.1540    3.5902 H   0  0  0  0  0  0  0  0  0  0  0  0
    3.0773   -2.7670    2.7604 H   0  0  0  0  0  0  0  0  0  0  0  0
    0.5986    0.7940    1.5764 H   0  0  0  0  0  0  0  0  0  0  0  0
    0.6024    2.0493    0.2954 H   0  0  0  0  0  0  0  0  0  0  0  0
   -1.7042    1.5987    0.9959 H   0  0  0  0  0  0  0  0  0  0  0  0
   -1.4470    1.0854   -0.7026 H   0  0  0  0  0  0  0  0  0  0  0  0
   -1.1256   -1.3095    0.1022 H   0  0  0  0  0  0  0  0  0  0  0  0
   -1.5990   -1.8533    2.3303 H   0  0  0  0  0  0  0  0  0  0  0  0
   -2.0178   -0.2685    2.7362 H   0  0  0  0  0  0  0  0  0  0  0  0
   -3.5304   -1.7141    0.9294 H   0  0  0  0  0  0  0  0  0  0  0  0
   -3.0610   -1.8710   -1.4581 H   0  0  0  0  0  0  0  0  0  0  0  0
   -3.1128   -0.0813   -1.6479 H   0  0  0  0  0  0  0  0  0  0  0  0
   -7.5086   -0.5098   -1.7882 H   0  0  0  0  0  0  0  0  0  0  0  0
   -8.9832    1.0148   -0.5008 H   0  0  0  0  0  0  0  0  0  0  0  0
   -8.0936    2.2412    1.4637 H   0  0  0  0  0  0  0  0  0  0  0  0
   -5.7355    1.9214    2.1667 H   0  0  0  0  0  0  0  0  0  0  0  0
  1  2  1  0
  2  3  1  0
  3  4  2  0
  4  5  1  0
  5  6  1  0
  6  7  1  0
  6  8  2  0
  6  9  2  0
  5 10  2  0
 10 11  1  0
 11 12  1  0
 12 13  1  0
 11 14  2  0
 14 15  1  0
 15 16  1  0
 16 17  1  0
 17 18  1  0
 18 19  1  0
 18 20  1  0
 20 21  1  0
 21 22  1  0
 22 23  1  0
 23 24  2  0
 24 25  1  0
 25 26  2  0
 26 27  1  0
 27 28  2  0
 28 29  1  0
 14  3  1  0
 29 20  1  0
 28 23  1  0
  1 30  1  0
  1 31  1  0
  1 32  1  0
  4 33  1  0
  7 34  1  0
  7 35  1  0
 10 36  1  0
 13 37  1  0
 13 38  1  0
 13 39  1  0
 16 40  1  0
 16 41  1  0
 17 42  1  0
 17 43  1  0
 18 44  1  0
 19 45  1  0
 19 46  1  0
 20 47  1  0
 21 48  1  0
 21 49  1  0
 24 50  1  0
 25 51  1  0
 26 52  1  0
 27 53  1  0
M  END
$$$$
