
     RDKit          3D

 64 68  0  0  0  0  0  0  0  0999 V2000
   -5.8780    0.9656   -0.8780 N   0  0  0  0  0  0  0  0  0  0  0  0
   -4.6462    0.1831   -1.0194 C   0  0  1  0  0  0  0  0  0  0  0  0
   -3.4434    1.0959   -1.3077 C   0  0  0  0  0  0  0  0  0  0  0  0
   -2.1146    0.3071   -1.2805 C   0  0  1  0  0  0  0  0  0  0  0  0
   -1.1187    0.9752   -0.4348 N   0  0  0  0  0  0  0  0  0  0  0  0
   -1.1920    1.1810    0.8981 C   0  0  0  0  0  0  0  0  0  0  0  0
   -0.0498    1.8351    1.3072 C   0  0  0  0  0  0  0  0  0  0  0  0
    0.6818    1.9939    0.1448 C   0  0  0  0  0  0  0  0  0  0  0  0
    1.9716    2.6164    0.0469 N   0  0  0  0  0  0  0  0  0  0  0  0
    2.7326    3.1116    1.1812 C   0  0  0  0  0  0  0  0  0  0  0  0
    4.0389    3.6902    0.6030 C   0  0  0  0  0  0  0  0  0  0  0  0
    4.1073    3.2754   -0.8867 C   0  0  0  0  0  0  0  0  0  0  0  0
    4.3242    4.4135   -1.6879 O   0  0  0  0  0  0  0  0  0  0  0  0
    5.1781    2.2253   -1.1113 C   0  0  0  0  0  0  0  0  0  0  0  0
    6.2013    2.5107   -1.7923 O   0  0  0  0  0  0  0  0  0  0  0  0
    5.0532    0.9215   -0.5232 N   0  0  0  0  0  0  0  0  0  0  0  0
    6.0454   -0.1245   -0.7642 C   0  0  0  0  0  0  0  0  0  0  0  0
    5.6372   -1.4051   -0.0843 C   0  0  0  0  0  0  0  0  0  0  0  0
    6.1566   -1.7283    1.1805 C   0  0  0  0  0  0  0  0  0  0  0  0
    5.7488   -2.8959    1.8330 C   0  0  0  0  0  0  0  0  0  0  0  0
    6.2588   -3.2047    3.0507 F   0  0  0  0  0  0  0  0  0  0  0  0
    4.8117   -3.7419    1.2338 C   0  0  0  0  0  0  0  0  0  0  0  0
    4.2766   -3.4201   -0.0167 C   0  0  0  0  0  0  0  0  0  0  0  0
    3.3588   -4.2384   -0.5885 F   0  0  0  0  0  0  0  0  0  0  0  0
    4.6818   -2.2530   -0.6746 C   0  0  0  0  0  0  0  0  0  0  0  0
    4.1392   -1.9447   -1.8802 F   0  0  0  0  0  0  0  0  0  0  0  0
    2.7516    2.7123   -1.1312 C   0  0  0  0  0  0  0  0  0  0  0  0
    2.3445    2.3302   -2.2617 O   0  0  0  0  0  0  0  0  0  0  0  0
    0.0186    1.4662   -0.9018 N   0  0  0  0  0  0  0  0  0  0  0  0
   -2.3102   -1.1593   -0.8410 C   0  0  0  0  0  0  0  0  0  0  0  0
   -3.0977   -1.2895    0.3316 O   0  0  0  0  0  0  0  0  0  0  0  0
   -4.3639   -0.6303    0.2731 C   0  0  2  0  0  0  0  0  0  0  0  0
   -5.4776   -1.6220    0.5517 C   0  0  0  0  0  0  0  0  0  0  0  0
   -6.4352   -1.3323    1.5429 C   0  0  0  0  0  0  0  0  0  0  0  0
   -7.4816   -2.2220    1.8026 C   0  0  0  0  0  0  0  0  0  0  0  0
   -8.3949   -1.9323    2.7619 F   0  0  0  0  0  0  0  0  0  0  0  0
   -7.5894   -3.4072    1.0730 C   0  0  0  0  0  0  0  0  0  0  0  0
   -6.6536   -3.7030    0.0802 C   0  0  0  0  0  0  0  0  0  0  0  0
   -5.6036   -2.8179   -0.1861 C   0  0  0  0  0  0  0  0  0  0  0  0
   -4.7209   -3.1319   -1.1650 F   0  0  0  0  0  0  0  0  0  0  0  0
   -6.0573    1.4719   -1.7756 H   0  0  0  0  0  0  0  0  0  0  0  0
   -5.7524    1.6878   -0.1314 H   0  0  0  0  0  0  0  0  0  0  0  0
   -4.7780   -0.5160   -1.8756 H   0  0  0  0  0  0  0  0  0  0  0  0
   -3.4208    1.9198   -0.5606 H   0  0  0  0  0  0  0  0  0  0  0  0
   -3.5750    1.5697   -2.3052 H   0  0  0  0  0  0  0  0  0  0  0  0
   -1.7195    0.2749   -2.3214 H   0  0  0  0  0  0  0  0  0  0  0  0
   -2.0153    0.8817    1.5318 H   0  0  0  0  0  0  0  0  0  0  0  0
    0.2094    2.1471    2.3100 H   0  0  0  0  0  0  0  0  0  0  0  0
    2.1561    3.8960    1.7178 H   0  0  0  0  0  0  0  0  0  0  0  0
    2.9583    2.2714    1.8734 H   0  0  0  0  0  0  0  0  0  0  0  0
    4.0117    4.7990    0.6930 H   0  0  0  0  0  0  0  0  0  0  0  0
    4.9155    3.3286    1.1855 H   0  0  0  0  0  0  0  0  0  0  0  0
    4.2803    4.1287   -2.6389 H   0  0  0  0  0  0  0  0  0  0  0  0
    4.2292    0.7199    0.0881 H   0  0  0  0  0  0  0  0  0  0  0  0
    6.1438   -0.2976   -1.8579 H   0  0  0  0  0  0  0  0  0  0  0  0
    7.0359    0.2140   -0.3893 H   0  0  0  0  0  0  0  0  0  0  0  0
    6.8749   -1.0755    1.6611 H   0  0  0  0  0  0  0  0  0  0  0  0
    4.4956   -4.6443    1.7413 H   0  0  0  0  0  0  0  0  0  0  0  0
   -1.3153   -1.6139   -0.6473 H   0  0  0  0  0  0  0  0  0  0  0  0
   -2.7577   -1.7454   -1.6713 H   0  0  0  0  0  0  0  0  0  0  0  0
   -4.3481    0.1076    1.1061 H   0  0  0  0  0  0  0  0  0  0  0  0
   -6.3743   -0.4147    2.1149 H   0  0  0  0  0  0  0  0  0  0  0  0
   -8.4002   -4.0958    1.2734 H   0  0  0  0  0  0  0  0  0  0  0  0
   -6.7442   -4.6204   -0.4872 H   0  0  0  0  0  0  0  0  0  0  0  0
  1  2  1  0
  2  3  1  0
  3  4  1  0
  4  5  1  0
  5  6  1  0
  6  7  2  0
  7  8  1  0
  8  9  1  0
  9 10  1  0
 10 11  1  0
 11 12  1  0
 12 13  1  0
 12 14  1  0
 14 15  2  0
 14 16  1  0
 16 17  1  0
 17 18  1  0
 18 19  2  0
 19 20  1  0
 20 21  1  0
 20 22  2  0
 22 23  1  0
 23 24  1  0
 23 25  2  0
 25 26  1  0
 12 27  1  0
 27 28  2  0
  8 29  2  0
  4 30  1  0
 30 31  1  0
 31 32  1  0
 32 33  1  0
 33 34  2  0
 34 35  1  0
 35 36  1  0
 35 37  2  0
 37 38  1  0
 38 39  2  0
 39 40  1  0
 32  2  1  0
 39 33  1  0
 29  5  1  0
 27  9  1  0
 25 18  1  0
  1 41  1  0
  1 42  1  0
  2 43  1  6
  3 44  1  0
  3 45  1  0
  4 46  1  6
  6 47  1  0
  7 48  1  0
 10 49  1  0
 10 50  1  0
 11 51  1  0
 11 52  1  0
 13 53  1  0
 16 54  1  0
 17 55  1  0
 17 56  1  0
 19 57  1  0
 22 58  1  0
 30 59  1  0
 30 60  1  0
 32 61  1  1
 34 62  1  0
 37 63  1  0
 38 64  1  0
M  END
$$$$
