
     RDKit          3D

 58 60  0  0  0  0  0  0  0  0999 V2000
   -4.8253   -3.1260    0.5530 C   0  0  0  0  0  0  0  0  0  0  0  0
   -5.2118   -2.1475   -0.5516 C   0  0  0  0  0  0  0  0  0  0  0  0
   -4.4945   -0.8271   -0.3741 C   0  0  0  0  0  0  0  0  0  0  0  0
   -3.2544   -0.6476   -1.0063 C   0  0  0  0  0  0  0  0  0  0  0  0
   -2.5296    0.5382   -0.8420 C   0  0  0  0  0  0  0  0  0  0  0  0
   -1.1757    0.7017   -1.4829 C   0  0  0  0  0  0  0  0  0  0  0  0
   -0.1089    0.5887   -0.4697 N   0  0  0  0  0  0  0  0  0  0  0  0
    0.0079   -0.7745    0.0764 C   0  0  0  0  0  0  0  0  0  0  0  0
    1.4821   -1.0011    0.3870 C   0  0  2  0  0  0  0  0  0  0  0  0
    1.8189   -0.5215    1.7334 N   0  0  0  0  0  0  0  0  0  0  0  0
    2.1761   -0.1966   -0.7082 C   0  0  2  0  0  0  0  0  0  0  0  0
    3.5837    0.2603   -0.3682 C   0  0  0  0  0  0  0  0  0  0  0  0
    3.7564    1.1033    0.5020 O   0  0  0  0  0  0  0  0  0  0  0  0
    4.7852   -0.3114   -1.1092 C   0  0  0  0  0  0  0  0  0  0  0  0
    5.5970    0.8063   -1.7655 C   0  0  0  0  0  0  0  0  0  0  0  0
    6.7122    1.1700   -0.7828 C   0  0  0  0  0  0  0  0  0  0  0  0
    6.7309    0.0898    0.2993 C   0  0  0  0  0  0  0  0  0  0  0  0
    5.7962   -1.0109   -0.1911 C   0  0  1  0  0  0  0  0  0  0  0  0
    5.1854   -1.7679    0.9174 C   0  0  0  0  0  0  0  0  0  0  0  0
    4.7062   -2.3624    1.7870 N   0  0  0  0  0  0  0  0  0  0  0  0
    1.2131    0.9531   -1.0133 C   0  0  0  0  0  0  0  0  0  0  0  0
   -3.0411    1.5518   -0.0246 C   0  0  0  0  0  0  0  0  0  0  0  0
   -4.2788    1.4024    0.6197 C   0  0  0  0  0  0  0  0  0  0  0  0
   -4.7622    2.5150    1.5242 C   0  0  0  0  0  0  0  0  0  0  0  0
   -4.3100    2.2792    2.9620 C   0  0  0  0  0  0  0  0  0  0  0  0
   -5.0050    0.1972    0.4601 C   0  0  0  0  0  0  0  0  0  0  0  0
   -6.2579    0.0063    1.1603 C   0  0  0  0  0  0  0  0  0  0  0  0
   -7.2588   -0.1466    1.7207 N   0  0  0  0  0  0  0  0  0  0  0  0
   -5.3549   -4.0896    0.3985 H   0  0  0  0  0  0  0  0  0  0  0  0
   -3.7305   -3.3144    0.5341 H   0  0  0  0  0  0  0  0  0  0  0  0
   -5.1092   -2.7203    1.5472 H   0  0  0  0  0  0  0  0  0  0  0  0
   -4.9540   -2.5955   -1.5362 H   0  0  0  0  0  0  0  0  0  0  0  0
   -6.3130   -2.0017   -0.5520 H   0  0  0  0  0  0  0  0  0  0  0  0
   -2.8451   -1.4422   -1.6192 H   0  0  0  0  0  0  0  0  0  0  0  0
   -1.1400    1.7113   -1.9502 H   0  0  0  0  0  0  0  0  0  0  0  0
   -1.0259   -0.0374   -2.3031 H   0  0  0  0  0  0  0  0  0  0  0  0
   -0.6229   -0.8768    0.9860 H   0  0  0  0  0  0  0  0  0  0  0  0
   -0.3175   -1.5421   -0.6636 H   0  0  0  0  0  0  0  0  0  0  0  0
    1.7458   -2.0797    0.3047 H   0  0  0  0  0  0  0  0  0  0  0  0
    1.3566   -1.1475    2.4322 H   0  0  0  0  0  0  0  0  0  0  0  0
    1.4339    0.4413    1.8763 H   0  0  0  0  0  0  0  0  0  0  0  0
    2.2107   -0.8441   -1.6136 H   0  0  0  0  0  0  0  0  0  0  0  0
    4.4444   -1.0275   -1.8893 H   0  0  0  0  0  0  0  0  0  0  0  0
    4.9742    1.6928   -2.0199 H   0  0  0  0  0  0  0  0  0  0  0  0
    6.0507    0.4235   -2.7067 H   0  0  0  0  0  0  0  0  0  0  0  0
    6.5132    2.1645   -0.3266 H   0  0  0  0  0  0  0  0  0  0  0  0
    7.6906    1.2101   -1.3098 H   0  0  0  0  0  0  0  0  0  0  0  0
    6.3660    0.5228    1.2582 H   0  0  0  0  0  0  0  0  0  0  0  0
    7.7593   -0.3038    0.4544 H   0  0  0  0  0  0  0  0  0  0  0  0
    6.3900   -1.7259   -0.8040 H   0  0  0  0  0  0  0  0  0  0  0  0
    1.1956    1.1416   -2.1118 H   0  0  0  0  0  0  0  0  0  0  0  0
    1.5387    1.8930   -0.5183 H   0  0  0  0  0  0  0  0  0  0  0  0
   -2.4645    2.4583    0.1196 H   0  0  0  0  0  0  0  0  0  0  0  0
   -5.8694    2.5979    1.4905 H   0  0  0  0  0  0  0  0  0  0  0  0
   -4.3632    3.4932    1.1770 H   0  0  0  0  0  0  0  0  0  0  0  0
   -3.2009    2.2399    3.0147 H   0  0  0  0  0  0  0  0  0  0  0  0
   -4.6675    3.1104    3.6054 H   0  0  0  0  0  0  0  0  0  0  0  0
   -4.7283    1.3257    3.3487 H   0  0  0  0  0  0  0  0  0  0  0  0
  1  2  1  0
  2  3  1  0
  3  4  2  0
  4  5  1  0
  5  6  1  0
  6  7  1  0
  7  8  1  0
  8  9  1  0
  9 10  1  0
  9 11  1  0
 11 12  1  0
 12 13  2  0
 12 14  1  0
 14 15  1  0
 15 16  1  0
 16 17  1  0
 17 18  1  0
 18 19  1  0
 19 20  3  0
 11 21  1  0
  5 22  2  0
 22 23  1  0
 23 24  1  0
 24 25  1  0
 23 26  2  0
 26 27  1  0
 27 28  3  0
 26  3  1  0
 21  7  1  0
 18 14  1  0
  1 29  1  0
  1 30  1  0
  1 31  1  0
  2 32  1  0
  2 33  1  0
  4 34  1  0
  6 35  1  0
  6 36  1  0
  8 37  1  0
  8 38  1  0
  9 39  1  1
 10 40  1  0
 10 41  1  0
 11 42  1  6
 14 43  1  0
 15 44  1  0
 15 45  1  0
 16 46  1  0
 16 47  1  0
 17 48  1  0
 17 49  1  0
 18 50  1  6
 21 51  1  0
 21 52  1  0
 22 53  1  0
 24 54  1  0
 24 55  1  0
 25 56  1  0
 25 57  1  0
 25 58  1  0
M  END
$$$$
