
     RDKit          3D

 49 52  0  0  0  0  0  0  0  0999 V2000
    2.5731   -0.4207    3.4234 N   0  0  0  0  0  0  0  0  0  0  0  0
    1.7550   -0.9973    2.3509 C   0  0  1  0  0  0  0  0  0  0  0  0
    0.5800   -0.0293    2.0434 C   0  0  0  0  0  0  0  0  0  0  0  0
   -0.4394   -0.6070    1.0938 C   0  0  0  0  0  0  0  0  0  0  0  0
   -1.0926   -1.6153    1.4799 O   0  0  0  0  0  0  0  0  0  0  0  0
   -0.7091   -0.0384   -0.2131 N   0  0  0  0  0  0  0  0  0  0  0  0
   -0.4084    1.3539   -0.5385 C   0  0  0  0  0  0  0  0  0  0  0  0
   -1.3481    2.2163    0.2163 C   0  0  0  0  0  0  0  0  0  0  0  0
   -0.9572    3.3402    0.6303 O   0  0  0  0  0  0  0  0  0  0  0  0
   -2.6773    1.7723    0.5200 N   0  0  0  0  0  0  0  0  0  0  0  0
   -3.5066    0.9306   -0.3153 C   0  0  0  0  0  0  0  0  0  0  0  0
   -4.8798    1.2407   -0.3478 C   0  0  0  0  0  0  0  0  0  0  0  0
   -5.7762    0.4960   -1.1116 C   0  0  0  0  0  0  0  0  0  0  0  0
   -7.0906    0.8294   -1.1283 F   0  0  0  0  0  0  0  0  0  0  0  0
   -5.3220   -0.5857   -1.8576 C   0  0  0  0  0  0  0  0  0  0  0  0
   -6.1919   -1.3097   -2.6048 F   0  0  0  0  0  0  0  0  0  0  0  0
   -3.9722   -0.9305   -1.8333 C   0  0  0  0  0  0  0  0  0  0  0  0
   -3.0428   -0.2034   -1.0637 C   0  0  0  0  0  0  0  0  0  0  0  0
   -1.6177   -0.7230   -1.1284 C   0  0  0  0  0  0  0  0  0  0  0  0
    2.6716   -1.3368    1.1297 C   0  0  1  0  0  0  0  0  0  0  0  0
    2.0912   -2.4253    0.1883 C   0  0  0  0  0  0  0  0  0  0  0  0
    2.0815   -1.8476   -1.2394 C   0  0  0  0  0  0  0  0  0  0  0  0
    2.6189   -0.4772   -1.0817 C   0  0  0  0  0  0  0  0  0  0  0  0
    2.8195    0.4558   -2.1019 C   0  0  0  0  0  0  0  0  0  0  0  0
    3.3770    1.7022   -1.7788 C   0  0  0  0  0  0  0  0  0  0  0  0
    3.5772    2.6243   -2.7523 F   0  0  0  0  0  0  0  0  0  0  0  0
    3.7366    1.9912   -0.4496 C   0  0  0  0  0  0  0  0  0  0  0  0
    4.2865    3.1915   -0.1408 F   0  0  0  0  0  0  0  0  0  0  0  0
    3.5312    1.0375    0.5589 C   0  0  0  0  0  0  0  0  0  0  0  0
    2.9464   -0.1882    0.2208 C   0  0  0  0  0  0  0  0  0  0  0  0
    3.2870   -1.1270    3.7167 H   0  0  0  0  0  0  0  0  0  0  0  0
    1.9696   -0.2724    4.2650 H   0  0  0  0  0  0  0  0  0  0  0  0
    1.3245   -1.9512    2.7345 H   0  0  0  0  0  0  0  0  0  0  0  0
    0.0414    0.1834    2.9923 H   0  0  0  0  0  0  0  0  0  0  0  0
    0.9722    0.9484    1.7130 H   0  0  0  0  0  0  0  0  0  0  0  0
    0.6470    1.6024   -0.3167 H   0  0  0  0  0  0  0  0  0  0  0  0
   -0.5496    1.5508   -1.6236 H   0  0  0  0  0  0  0  0  0  0  0  0
   -3.1608    2.3099    1.2756 H   0  0  0  0  0  0  0  0  0  0  0  0
   -5.2586    2.0822    0.2194 H   0  0  0  0  0  0  0  0  0  0  0  0
   -3.6468   -1.7827   -2.4188 H   0  0  0  0  0  0  0  0  0  0  0  0
   -1.6106   -1.8172   -0.9288 H   0  0  0  0  0  0  0  0  0  0  0  0
   -1.2437   -0.6074   -2.1695 H   0  0  0  0  0  0  0  0  0  0  0  0
    3.6519   -1.7103    1.5020 H   0  0  0  0  0  0  0  0  0  0  0  0
    1.0691   -2.7420    0.4787 H   0  0  0  0  0  0  0  0  0  0  0  0
    2.7346   -3.3322    0.2187 H   0  0  0  0  0  0  0  0  0  0  0  0
    1.0513   -1.8140   -1.6510 H   0  0  0  0  0  0  0  0  0  0  0  0
    2.7397   -2.4398   -1.9110 H   0  0  0  0  0  0  0  0  0  0  0  0
    2.5530    0.2205   -3.1242 H   0  0  0  0  0  0  0  0  0  0  0  0
    3.8152    1.2523    1.5806 H   0  0  0  0  0  0  0  0  0  0  0  0
  1  2  1  0
  2  3  1  0
  3  4  1  0
  4  5  2  0
  4  6  1  0
  6  7  1  0
  7  8  1  0
  8  9  2  0
  8 10  1  0
 10 11  1  0
 11 12  2  0
 12 13  1  0
 13 14  1  0
 13 15  2  0
 15 16  1  0
 15 17  1  0
 17 18  2  0
 18 19  1  0
  2 20  1  0
 20 21  1  0
 21 22  1  0
 22 23  1  0
 23 24  2  0
 24 25  1  0
 25 26  1  0
 25 27  2  0
 27 28  1  0
 27 29  1  0
 29 30  2  0
 19  6  1  0
 30 20  1  0
 18 11  1  0
 30 23  1  0
  1 31  1  0
  1 32  1  0
  2 33  1  1
  3 34  1  0
  3 35  1  0
  7 36  1  0
  7 37  1  0
 10 38  1  0
 12 39  1  0
 17 40  1  0
 19 41  1  0
 19 42  1  0
 20 43  1  1
 21 44  1  0
 21 45  1  0
 22 46  1  0
 22 47  1  0
 24 48  1  0
 29 49  1  0
M  END
$$$$
