
     RDKit          3D

 64 68  0  0  0  0  0  0  0  0999 V2000
   -1.2402    2.2708   -3.6043 C   0  0  0  0  0  0  0  0  0  0  0  0
   -1.3716    2.4178   -2.1109 C   0  0  0  0  0  0  0  0  0  0  0  0
   -1.8634    3.7200   -1.5255 C   0  0  0  0  0  0  0  0  0  0  0  0
   -1.0471    1.3700   -1.3260 C   0  0  0  0  0  0  0  0  0  0  0  0
   -1.1442    1.4031    0.1774 C   0  0  0  0  0  0  0  0  0  0  0  0
   -0.8159    0.0898    0.7375 N   0  0  0  0  0  0  0  0  0  0  0  0
   -1.6685   -0.9196    1.0717 C   0  0  0  0  0  0  0  0  0  0  0  0
   -3.0837   -0.9053    0.8197 N   0  0  0  0  0  0  0  0  0  0  0  0
   -4.0187   -1.6216    1.6713 C   0  0  0  0  0  0  0  0  0  0  0  0
   -5.3593   -1.5748    0.9389 C   0  0  0  0  0  0  0  0  0  0  0  0
   -6.2487   -0.4207    1.3702 C   0  0  0  0  0  0  0  0  0  0  0  0
   -6.9068    0.0557    0.0847 C   0  0  0  0  0  0  0  0  0  0  0  0
   -6.1083   -0.4194   -1.0480 N   0  0  0  0  0  0  0  0  0  0  0  0
   -5.0317   -1.2607   -0.5081 C   0  0  0  0  0  0  0  0  0  0  0  0
   -3.6619   -0.5627   -0.4722 C   0  0  0  0  0  0  0  0  0  0  0  0
   -1.0500   -1.9850    1.6436 N   0  0  0  0  0  0  0  0  0  0  0  0
    0.2447   -1.6157    1.6391 C   0  0  0  0  0  0  0  0  0  0  0  0
    0.3951   -0.3869    1.0899 C   0  0  0  0  0  0  0  0  0  0  0  0
    1.6661    0.1597    0.9383 C   0  0  0  0  0  0  0  0  0  0  0  0
    1.8222    1.2823    0.3848 O   0  0  0  0  0  0  0  0  0  0  0  0
    2.7480   -0.5670    1.3834 N   0  0  0  0  0  0  0  0  0  0  0  0
    4.1127   -0.0257    1.2135 C   0  0  0  0  0  0  0  0  0  0  0  0
    4.6871   -0.3889   -0.1347 C   0  0  0  0  0  0  0  0  0  0  0  0
    4.0410   -1.1702   -0.8868 O   0  0  0  0  0  0  0  0  0  0  0  0
    6.0007    0.1415   -0.5912 C   0  0  0  0  0  0  0  0  0  0  0  0
    6.8109    0.9279    0.2540 C   0  0  0  0  0  0  0  0  0  0  0  0
    8.0420    1.4160   -0.1952 C   0  0  0  0  0  0  0  0  0  0  0  0
    8.4820    1.1279   -1.4881 C   0  0  0  0  0  0  0  0  0  0  0  0
    7.6922    0.3496   -2.3357 C   0  0  0  0  0  0  0  0  0  0  0  0
    6.4605   -0.1419   -1.8929 C   0  0  0  0  0  0  0  0  0  0  0  0
    2.5643   -1.8276    1.9286 C   0  0  0  0  0  0  0  0  0  0  0  0
    3.5671   -2.5113    2.2807 O   0  0  0  0  0  0  0  0  0  0  0  0
    1.2997   -2.3521    2.0811 N   0  0  0  0  0  0  0  0  0  0  0  0
    1.0971   -3.7018    2.6245 C   0  0  0  0  0  0  0  0  0  0  0  0
   -1.8892    1.4415   -3.9577 H   0  0  0  0  0  0  0  0  0  0  0  0
   -1.5400    3.1975   -4.1362 H   0  0  0  0  0  0  0  0  0  0  0  0
   -0.1853    2.0438   -3.8675 H   0  0  0  0  0  0  0  0  0  0  0  0
   -2.0639    4.4721   -2.3165 H   0  0  0  0  0  0  0  0  0  0  0  0
   -1.0984    4.1402   -0.8394 H   0  0  0  0  0  0  0  0  0  0  0  0
   -2.8079    3.5508   -0.9669 H   0  0  0  0  0  0  0  0  0  0  0  0
   -0.7007    0.4508   -1.7936 H   0  0  0  0  0  0  0  0  0  0  0  0
   -0.4587    2.1743    0.5845 H   0  0  0  0  0  0  0  0  0  0  0  0
   -2.1628    1.7004    0.4986 H   0  0  0  0  0  0  0  0  0  0  0  0
   -3.6919   -2.6789    1.7798 H   0  0  0  0  0  0  0  0  0  0  0  0
   -4.0706   -1.1507    2.6769 H   0  0  0  0  0  0  0  0  0  0  0  0
   -5.9086   -2.5395    1.0248 H   0  0  0  0  0  0  0  0  0  0  0  0
   -5.6486    0.4137    1.7984 H   0  0  0  0  0  0  0  0  0  0  0  0
   -7.0034   -0.7498    2.1171 H   0  0  0  0  0  0  0  0  0  0  0  0
   -6.9921    1.1657    0.0772 H   0  0  0  0  0  0  0  0  0  0  0  0
   -7.9276   -0.3760    0.0051 H   0  0  0  0  0  0  0  0  0  0  0  0
   -5.7325    0.3942   -1.5892 H   0  0  0  0  0  0  0  0  0  0  0  0
   -4.9607   -2.2028   -1.0954 H   0  0  0  0  0  0  0  0  0  0  0  0
   -3.0201   -0.9360   -1.2996 H   0  0  0  0  0  0  0  0  0  0  0  0
   -3.7699    0.5379   -0.5471 H   0  0  0  0  0  0  0  0  0  0  0  0
    4.1019    1.0806    1.3236 H   0  0  0  0  0  0  0  0  0  0  0  0
    4.7861   -0.4048    2.0123 H   0  0  0  0  0  0  0  0  0  0  0  0
    6.5048    1.1666    1.2633 H   0  0  0  0  0  0  0  0  0  0  0  0
    8.6564    2.0182    0.4617 H   0  0  0  0  0  0  0  0  0  0  0  0
    9.4353    1.5071   -1.8328 H   0  0  0  0  0  0  0  0  0  0  0  0
    8.0344    0.1264   -3.3380 H   0  0  0  0  0  0  0  0  0  0  0  0
    5.8676   -0.7414   -2.5723 H   0  0  0  0  0  0  0  0  0  0  0  0
    1.2442   -4.4525    1.8198 H   0  0  0  0  0  0  0  0  0  0  0  0
    1.8129   -3.9042    3.4497 H   0  0  0  0  0  0  0  0  0  0  0  0
    0.0759   -3.8184    3.0463 H   0  0  0  0  0  0  0  0  0  0  0  0
  1  2  1  0
  2  3  1  0
  2  4  2  3
  4  5  1  0
  5  6  1  0
  6  7  1  0
  7  8  1  0
  8  9  1  0
  9 10  1  0
 10 11  1  0
 11 12  1  0
 12 13  1  0
 13 14  1  0
 14 15  1  0
  7 16  2  0
 16 17  1  0
 17 18  2  0
 18 19  1  0
 19 20  2  0
 19 21  1  0
 21 22  1  0
 22 23  1  0
 23 24  2  0
 23 25  1  0
 25 26  2  0
 26 27  1  0
 27 28  2  0
 28 29  1  0
 29 30  2  0
 21 31  1  0
 31 32  2  0
 31 33  1  0
 33 34  1  0
 18  6  1  0
 30 25  1  0
 15  8  1  0
 33 17  1  0
 14 10  1  0
  1 35  1  0
  1 36  1  0
  1 37  1  0
  3 38  1  0
  3 39  1  0
  3 40  1  0
  4 41  1  0
  5 42  1  0
  5 43  1  0
  9 44  1  0
  9 45  1  0
 10 46  1  0
 11 47  1  0
 11 48  1  0
 12 49  1  0
 12 50  1  0
 13 51  1  0
 14 52  1  0
 15 53  1  0
 15 54  1  0
 22 55  1  0
 22 56  1  0
 26 57  1  0
 27 58  1  0
 28 59  1  0
 29 60  1  0
 30 61  1  0
 34 62  1  0
 34 63  1  0
 34 64  1  0
M  END
$$$$
