
     RDKit          3D

 37 37  0  0  0  0  0  0  0  0999 V2000
    4.3066    4.4157    0.6547 N   0  0  0  0  0  0  0  0  0  0  0  0
    4.1368    3.2336    0.3603 N   0  0  0  0  0  0  0  0  0  0  0  0
    3.9671    2.0503    0.0653 N   0  0  0  0  0  0  0  0  0  0  0  0
    2.7479    1.3463    0.4509 C   0  0  0  0  0  0  0  0  0  0  0  0
    3.0689    0.1253    1.3115 C   0  0  0  0  0  0  0  0  0  0  0  0
    2.0432   -0.9306    0.9168 C   0  0  0  0  0  0  0  0  0  0  0  0
    1.5073   -0.4980   -0.3644 N   0  0  0  0  0  0  0  0  0  0  0  0
    0.7271   -1.3203   -1.2516 C   0  0  0  0  0  0  0  0  0  0  0  0
    0.9098   -1.2201   -2.4953 O   0  0  0  0  0  0  0  0  0  0  0  0
   -0.3672   -2.2506   -0.7595 C   0  0  1  0  0  0  0  0  0  0  0  0
    0.1761   -3.4079   -0.0433 N   0  0  0  0  0  0  0  0  0  0  0  0
   -1.4193   -1.5200    0.1007 C   0  0  0  0  0  0  0  0  0  0  0  0
   -2.1543   -0.4224   -0.6847 C   0  0  0  0  0  0  0  0  0  0  0  0
   -3.2167    0.2599    0.1886 C   0  0  0  0  0  0  0  0  0  0  0  0
   -4.0570    1.2836   -0.5947 C   0  0  0  0  0  0  0  0  0  0  0  0
   -3.2818    2.4588   -0.9925 N   0  0  0  0  0  0  0  0  0  0  0  0
    2.0227    0.7976   -0.7722 C   0  0  0  0  0  0  0  0  0  0  0  0
    2.0603    2.0195    1.0146 H   0  0  0  0  0  0  0  0  0  0  0  0
    4.0908   -0.2525    1.0831 H   0  0  0  0  0  0  0  0  0  0  0  0
    3.0052    0.3679    2.3946 H   0  0  0  0  0  0  0  0  0  0  0  0
    1.2361   -0.9741    1.6763 H   0  0  0  0  0  0  0  0  0  0  0  0
    2.5364   -1.9216    0.8174 H   0  0  0  0  0  0  0  0  0  0  0  0
   -0.9006   -2.6500   -1.6515 H   0  0  0  0  0  0  0  0  0  0  0  0
    0.4991   -3.1311    0.9099 H   0  0  0  0  0  0  0  0  0  0  0  0
    0.9962   -3.7901   -0.5688 H   0  0  0  0  0  0  0  0  0  0  0  0
   -2.1640   -2.2673    0.4535 H   0  0  0  0  0  0  0  0  0  0  0  0
   -0.9440   -1.0737    0.9982 H   0  0  0  0  0  0  0  0  0  0  0  0
   -2.6417   -0.8721   -1.5775 H   0  0  0  0  0  0  0  0  0  0  0  0
   -1.4178    0.3356   -1.0249 H   0  0  0  0  0  0  0  0  0  0  0  0
   -2.7301    0.7579    1.0558 H   0  0  0  0  0  0  0  0  0  0  0  0
   -3.9069   -0.5147    0.5888 H   0  0  0  0  0  0  0  0  0  0  0  0
   -4.8977    1.6188    0.0500 H   0  0  0  0  0  0  0  0  0  0  0  0
   -4.5004    0.8060   -1.4957 H   0  0  0  0  0  0  0  0  0  0  0  0
   -2.5977    2.1865   -1.7340 H   0  0  0  0  0  0  0  0  0  0  0  0
   -2.7464    2.8183   -0.1691 H   0  0  0  0  0  0  0  0  0  0  0  0
    1.1872    1.4700   -1.0653 H   0  0  0  0  0  0  0  0  0  0  0  0
    2.7186    0.6658   -1.6302 H   0  0  0  0  0  0  0  0  0  0  0  0
  1  2  2  0
  2  3  2  0
  3  4  1  0
  4  5  1  0
  5  6  1  0
  6  7  1  0
  7  8  1  0
  8  9  2  0
  8 10  1  0
 10 11  1  0
 10 12  1  0
 12 13  1  0
 13 14  1  0
 14 15  1  0
 15 16  1  0
  7 17  1  0
 17  4  1  0
  4 18  1  0
  5 19  1  0
  5 20  1  0
  6 21  1  0
  6 22  1  0
 10 23  1  6
 11 24  1  0
 11 25  1  0
 12 26  1  0
 12 27  1  0
 13 28  1  0
 13 29  1  0
 14 30  1  0
 14 31  1  0
 15 32  1  0
 15 33  1  0
 16 34  1  0
 16 35  1  0
 17 36  1  0
 17 37  1  0
M  CHG  2   1  -1   2   1
M  END
$$$$
