
     RDKit          3D

 41 42  0  0  0  0  0  0  0  0999 V2000
   -0.7060    1.6054   -0.5433 O   0  0  0  0  0  0  0  0  0  0  0  0
   -0.9764    0.4048   -0.2641 C   0  0  0  0  0  0  0  0  0  0  0  0
    0.1379   -0.5455    0.0855 C   0  0  0  0  0  0  0  0  0  0  0  0
    1.3662    0.1906    0.4215 N   0  0  0  0  0  0  0  0  0  0  0  0
    2.5233   -0.7175    0.5779 C   0  0  0  0  0  0  0  0  0  0  0  0
    3.1808   -0.9996   -0.7910 C   0  0  0  0  0  0  0  0  0  0  0  0
    3.8171    0.2652   -1.3844 C   0  0  0  0  0  0  0  0  0  0  0  0
    4.8450    0.8683   -0.4199 C   0  0  0  0  0  0  0  0  0  0  0  0
    4.2177    1.1527    0.9497 C   0  0  0  0  0  0  0  0  0  0  0  0
    3.5767   -0.1137    1.5354 C   0  0  0  0  0  0  0  0  0  0  0  0
   -2.3416   -0.0507   -0.3336 N   0  0  0  0  0  0  0  0  0  0  0  0
   -2.7343   -1.4462   -0.2059 C   0  0  0  0  0  0  0  0  0  0  0  0
   -4.2442   -1.4712   -0.4065 C   0  0  0  0  0  0  0  0  0  0  0  0
   -4.5949   -0.1399   -1.0648 C   0  0  0  0  0  0  0  0  0  0  0  0
   -3.4574    0.8146   -0.6945 C   0  0  1  0  0  0  0  0  0  0  0  0
   -3.8541    1.7691    0.5368 B   0  0  0  0  0  0  0  0  0  0  0  0
   -3.1670    1.6471    1.8212 O   0  0  0  0  0  0  0  0  0  0  0  0
   -4.8899    2.7852    0.3660 O   0  0  0  0  0  0  0  0  0  0  0  0
    0.3013   -1.2082   -0.7893 H   0  0  0  0  0  0  0  0  0  0  0  0
   -0.1702   -1.1711    0.9521 H   0  0  0  0  0  0  0  0  0  0  0  0
    1.1824    0.6773    1.3311 H   0  0  0  0  0  0  0  0  0  0  0  0
    2.1978   -1.6873    1.0210 H   0  0  0  0  0  0  0  0  0  0  0  0
    2.4384   -1.4045   -1.5090 H   0  0  0  0  0  0  0  0  0  0  0  0
    3.9659   -1.7779   -0.6663 H   0  0  0  0  0  0  0  0  0  0  0  0
    4.3215    0.0069   -2.3403 H   0  0  0  0  0  0  0  0  0  0  0  0
    3.0274    1.0154   -1.6087 H   0  0  0  0  0  0  0  0  0  0  0  0
    5.6998    0.1667   -0.2998 H   0  0  0  0  0  0  0  0  0  0  0  0
    5.2379    1.8157   -0.8475 H   0  0  0  0  0  0  0  0  0  0  0  0
    5.0052    1.5182    1.6433 H   0  0  0  0  0  0  0  0  0  0  0  0
    3.4527    1.9537    0.8522 H   0  0  0  0  0  0  0  0  0  0  0  0
    4.3715   -0.8676    1.7299 H   0  0  0  0  0  0  0  0  0  0  0  0
    3.1101    0.1265    2.5152 H   0  0  0  0  0  0  0  0  0  0  0  0
   -2.2306   -2.0506   -0.9913 H   0  0  0  0  0  0  0  0  0  0  0  0
   -2.4719   -1.8344    0.8016 H   0  0  0  0  0  0  0  0  0  0  0  0
   -4.7510   -1.5383    0.5814 H   0  0  0  0  0  0  0  0  0  0  0  0
   -4.5570   -2.3308   -1.0381 H   0  0  0  0  0  0  0  0  0  0  0  0
   -4.6063   -0.2781   -2.1687 H   0  0  0  0  0  0  0  0  0  0  0  0
   -5.6017    0.2145   -0.7508 H   0  0  0  0  0  0  0  0  0  0  0  0
   -3.1899    1.4417   -1.5729 H   0  0  0  0  0  0  0  0  0  0  0  0
   -3.7022    0.9861    2.3289 H   0  0  0  0  0  0  0  0  0  0  0  0
   -5.7300    2.3379    0.6400 H   0  0  0  0  0  0  0  0  0  0  0  0
  1  2  2  0
  2  3  1  0
  3  4  1  0
  4  5  1  0
  5  6  1  0
  6  7  1  0
  7  8  1  0
  8  9  1  0
  9 10  1  0
  2 11  1  0
 11 12  1  0
 12 13  1  0
 13 14  1  0
 14 15  1  0
 15 16  1  0
 16 17  1  0
 16 18  1  0
 10  5  1  0
 15 11  1  0
  3 19  1  0
  3 20  1  0
  4 21  1  0
  5 22  1  0
  6 23  1  0
  6 24  1  0
  7 25  1  0
  7 26  1  0
  8 27  1  0
  8 28  1  0
  9 29  1  0
  9 30  1  0
 10 31  1  0
 10 32  1  0
 12 33  1  0
 12 34  1  0
 13 35  1  0
 13 36  1  0
 14 37  1  0
 14 38  1  0
 15 39  1  6
 17 40  1  0
 18 41  1  0
M  END
$$$$
