
     RDKit          3D

 49 51  0  0  0  0  0  0  0  0999 V2000
    2.0273    0.5900    1.4265 N   0  0  0  0  0  0  0  0  0  0  0  0
    2.3314   -0.7662    0.9563 C   0  0  1  0  0  0  0  0  0  0  0  0
    1.5342   -1.1273   -0.3181 C   0  0  0  0  0  0  0  0  0  0  0  0
    0.0604   -1.1864   -0.0415 C   0  0  0  0  0  0  0  0  0  0  0  0
   -0.4351   -2.2510    0.4164 O   0  0  0  0  0  0  0  0  0  0  0  0
   -0.7620   -0.0254   -0.2624 N   0  0  0  0  0  0  0  0  0  0  0  0
   -2.1863    0.0766    0.1126 C   0  0  0  0  0  0  0  0  0  0  0  0
   -2.9430   -1.0570   -0.5639 C   0  0  0  0  0  0  0  0  0  0  0  0
   -3.3867   -2.1653    0.0734 N   0  0  0  0  0  0  0  0  0  0  0  0
   -3.9390   -3.0677   -0.7804 C   0  0  0  0  0  0  0  0  0  0  0  0
   -3.9202   -2.7017   -2.1197 C   0  0  0  0  0  0  0  0  0  0  0  0
   -3.1828   -1.1964   -2.2271 S   0  0  0  0  0  0  0  0  0  0  0  0
   -2.2884    0.0169    1.6707 C   0  0  0  0  0  0  0  0  0  0  0  0
   -3.7090    0.1578    2.2401 C   0  0  0  0  0  0  0  0  0  0  0  0
   -4.4812    1.6443    1.6514 S   0  0  0  0  0  0  0  0  0  0  0  0
   -5.9559    1.6085    1.9369 O   0  0  0  0  0  0  0  0  0  0  0  0
   -3.8661    2.8435    2.3167 O   0  0  0  0  0  0  0  0  0  0  0  0
   -4.2003    1.7070   -0.0994 C   0  0  0  0  0  0  0  0  0  0  0  0
   -2.7191    1.4525   -0.3964 C   0  0  0  0  0  0  0  0  0  0  0  0
    3.8529   -0.9372    0.7588 C   0  0  0  0  0  0  0  0  0  0  0  0
    4.4342   -0.0126   -0.2872 C   0  0  0  0  0  0  0  0  0  0  0  0
    4.5169   -0.4310   -1.6270 C   0  0  0  0  0  0  0  0  0  0  0  0
    5.0362    0.4233   -2.6038 C   0  0  0  0  0  0  0  0  0  0  0  0
    5.4792    1.7006   -2.2531 C   0  0  0  0  0  0  0  0  0  0  0  0
    5.4052    2.1256   -0.9244 C   0  0  0  0  0  0  0  0  0  0  0  0
    4.8863    1.2760    0.0583 C   0  0  0  0  0  0  0  0  0  0  0  0
    4.8272    1.7096    1.3430 F   0  0  0  0  0  0  0  0  0  0  0  0
    1.0636    0.6002    1.8324 H   0  0  0  0  0  0  0  0  0  0  0  0
    2.0314    1.2545    0.6186 H   0  0  0  0  0  0  0  0  0  0  0  0
    2.0393   -1.4846    1.7563 H   0  0  0  0  0  0  0  0  0  0  0  0
    1.7308   -0.3884   -1.1240 H   0  0  0  0  0  0  0  0  0  0  0  0
    1.8633   -2.1211   -0.6928 H   0  0  0  0  0  0  0  0  0  0  0  0
   -0.2932    0.8067   -0.6889 H   0  0  0  0  0  0  0  0  0  0  0  0
   -4.3496   -4.0064   -0.4341 H   0  0  0  0  0  0  0  0  0  0  0  0
   -4.3000   -3.2888   -2.9448 H   0  0  0  0  0  0  0  0  0  0  0  0
   -1.6568    0.8244    2.1031 H   0  0  0  0  0  0  0  0  0  0  0  0
   -1.8704   -0.9405    2.0460 H   0  0  0  0  0  0  0  0  0  0  0  0
   -4.3361   -0.7107    1.9554 H   0  0  0  0  0  0  0  0  0  0  0  0
   -3.6605    0.1925    3.3490 H   0  0  0  0  0  0  0  0  0  0  0  0
   -4.4901    2.7098   -0.4780 H   0  0  0  0  0  0  0  0  0  0  0  0
   -4.8343    0.9469   -0.6021 H   0  0  0  0  0  0  0  0  0  0  0  0
   -2.5656    1.5330   -1.4947 H   0  0  0  0  0  0  0  0  0  0  0  0
   -2.1220    2.2717    0.0630 H   0  0  0  0  0  0  0  0  0  0  0  0
    4.3636   -0.7668    1.7316 H   0  0  0  0  0  0  0  0  0  0  0  0
    4.0690   -1.9934    0.4848 H   0  0  0  0  0  0  0  0  0  0  0  0
    4.1755   -1.4174   -1.9154 H   0  0  0  0  0  0  0  0  0  0  0  0
    5.0943    0.0949   -3.6335 H   0  0  0  0  0  0  0  0  0  0  0  0
    5.8807    2.3609   -3.0109 H   0  0  0  0  0  0  0  0  0  0  0  0
    5.7509    3.1156   -0.6561 H   0  0  0  0  0  0  0  0  0  0  0  0
  1  2  1  0
  2  3  1  0
  3  4  1  0
  4  5  2  0
  4  6  1  0
  6  7  1  0
  7  8  1  0
  8  9  2  0
  9 10  1  0
 10 11  2  0
 11 12  1  0
  7 13  1  0
 13 14  1  0
 14 15  1  0
 15 16  2  0
 15 17  2  0
 15 18  1  0
 18 19  1  0
  2 20  1  0
 20 21  1  0
 21 22  2  0
 22 23  1  0
 23 24  2  0
 24 25  1  0
 25 26  2  0
 26 27  1  0
 19  7  1  0
 26 21  1  0
 12  8  1  0
  1 28  1  0
  1 29  1  0
  2 30  1  1
  3 31  1  0
  3 32  1  0
  6 33  1  0
 10 34  1  0
 11 35  1  0
 13 36  1  0
 13 37  1  0
 14 38  1  0
 14 39  1  0
 18 40  1  0
 18 41  1  0
 19 42  1  0
 19 43  1  0
 20 44  1  0
 20 45  1  0
 22 46  1  0
 23 47  1  0
 24 48  1  0
 25 49  1  0
M  END
$$$$
