
     RDKit          3D

 34 34  0  0  0  0  0  0  0  0999 V2000
   -3.7427   -1.0260   -0.5020 C   0  0  0  0  0  0  0  0  0  0  0  0
   -2.5274   -0.6197   -1.3391 C   0  0  0  0  0  0  0  0  0  0  0  0
   -1.5554    0.3710   -0.6505 C   0  0  0  0  0  0  0  0  0  0  0  0
   -2.1795    1.7674   -0.4759 C   0  0  0  0  0  0  0  0  0  0  0  0
   -0.9224   -0.1976    0.6546 C   0  0  2  0  0  0  0  0  0  0  0  0
   -1.8583   -0.1420    1.7858 N   0  0  0  0  0  0  0  0  0  0  0  0
    0.3848    0.5143    0.9765 C   0  0  0  0  0  0  0  0  0  0  0  0
    0.3777    1.4485    1.8253 O   0  0  0  0  0  0  0  0  0  0  0  0
    1.6151    0.1899    0.2843 N   0  0  0  0  0  0  0  0  0  0  0  0
    1.7700   -1.1147   -0.3823 C   0  0  0  0  0  0  0  0  0  0  0  0
    3.1676   -1.3138   -0.9739 C   0  0  0  0  0  0  0  0  0  0  0  0
    4.4647   -1.1187    0.2998 S   0  0  0  0  0  0  0  0  0  0  0  0
    3.9434    0.4935    1.0121 C   0  0  0  0  0  0  0  0  0  0  0  0
    2.7458    1.1303    0.3100 C   0  0  0  0  0  0  0  0  0  0  0  0
   -4.4169   -1.6541   -1.1216 H   0  0  0  0  0  0  0  0  0  0  0  0
   -3.4325   -1.6307    0.3744 H   0  0  0  0  0  0  0  0  0  0  0  0
   -4.3156   -0.1387   -0.1652 H   0  0  0  0  0  0  0  0  0  0  0  0
   -1.9692   -1.5409   -1.6157 H   0  0  0  0  0  0  0  0  0  0  0  0
   -2.8897   -0.1694   -2.2892 H   0  0  0  0  0  0  0  0  0  0  0  0
   -0.7259    0.5065   -1.3809 H   0  0  0  0  0  0  0  0  0  0  0  0
   -1.4267    2.4764   -0.0721 H   0  0  0  0  0  0  0  0  0  0  0  0
   -3.0505    1.7478    0.2095 H   0  0  0  0  0  0  0  0  0  0  0  0
   -2.5189    2.1569   -1.4593 H   0  0  0  0  0  0  0  0  0  0  0  0
   -0.6972   -1.2708    0.4814 H   0  0  0  0  0  0  0  0  0  0  0  0
   -2.0057    0.8453    2.0962 H   0  0  0  0  0  0  0  0  0  0  0  0
   -1.4354   -0.6573    2.5922 H   0  0  0  0  0  0  0  0  0  0  0  0
    1.0300   -1.2041   -1.2056 H   0  0  0  0  0  0  0  0  0  0  0  0
    1.5832   -1.9267    0.3536 H   0  0  0  0  0  0  0  0  0  0  0  0
    3.3452   -0.6022   -1.8076 H   0  0  0  0  0  0  0  0  0  0  0  0
    3.2409   -2.3398   -1.3919 H   0  0  0  0  0  0  0  0  0  0  0  0
    3.6917    0.3334    2.0819 H   0  0  0  0  0  0  0  0  0  0  0  0
    4.8051    1.1922    0.9662 H   0  0  0  0  0  0  0  0  0  0  0  0
    3.0195    1.4194   -0.7269 H   0  0  0  0  0  0  0  0  0  0  0  0
    2.4853    2.0745    0.8336 H   0  0  0  0  0  0  0  0  0  0  0  0
  1  2  1  0
  2  3  1  0
  3  4  1  0
  3  5  1  0
  5  6  1  0
  5  7  1  0
  7  8  2  0
  7  9  1  0
  9 10  1  0
 10 11  1  0
 11 12  1  0
 12 13  1  0
 13 14  1  0
 14  9  1  0
  1 15  1  0
  1 16  1  0
  1 17  1  0
  2 18  1  0
  2 19  1  0
  3 20  1  0
  4 21  1  0
  4 22  1  0
  4 23  1  0
  5 24  1  6
  6 25  1  0
  6 26  1  0
 10 27  1  0
 10 28  1  0
 11 29  1  0
 11 30  1  0
 13 31  1  0
 13 32  1  0
 14 33  1  0
 14 34  1  0
M  END
$$$$
