
     RDKit          3D

 45 48  0  0  0  0  0  0  0  0999 V2000
    8.6129    1.3882    1.5584 N   0  0  0  0  0  0  0  0  0  0  0  0
    7.4661    1.5411    1.5309 C   0  0  0  0  0  0  0  0  0  0  0  0
    6.0395    1.7311    1.4966 C   0  0  0  0  0  0  0  0  0  0  0  0
    5.5045    3.0228    1.5452 C   0  0  0  0  0  0  0  0  0  0  0  0
    4.1209    3.2069    1.5160 C   0  0  0  0  0  0  0  0  0  0  0  0
    3.2658    2.1044    1.4328 C   0  0  0  0  0  0  0  0  0  0  0  0
    3.7890    0.7976    1.3713 C   0  0  0  0  0  0  0  0  0  0  0  0
    2.8985   -0.3888    1.2910 C   0  0  0  0  0  0  0  0  0  0  0  0
    1.6439   -0.3296    0.6618 C   0  0  0  0  0  0  0  0  0  0  0  0
    0.8489   -1.4865    0.6165 C   0  0  0  0  0  0  0  0  0  0  0  0
   -0.4478   -1.4835   -0.0123 N   0  0  0  0  0  0  0  0  0  0  0  0
   -1.0172   -0.3488   -0.7256 C   0  0  0  0  0  0  0  0  0  0  0  0
   -2.3078   -0.8731   -1.3627 C   0  0  2  0  0  0  0  0  0  0  0  0
   -3.4336    0.1459   -1.3663 C   0  0  0  0  0  0  0  0  0  0  0  0
   -3.9136    0.7110   -0.1677 C   0  0  0  0  0  0  0  0  0  0  0  0
   -4.9565    1.6417   -0.1915 C   0  0  0  0  0  0  0  0  0  0  0  0
   -5.5333    2.0168   -1.4068 C   0  0  0  0  0  0  0  0  0  0  0  0
   -5.0689    1.4610   -2.6010 C   0  0  0  0  0  0  0  0  0  0  0  0
   -4.0260    0.5299   -2.5831 C   0  0  0  0  0  0  0  0  0  0  0  0
   -2.6559   -2.1558   -0.5804 C   0  0  1  0  0  0  0  0  0  0  0  0
   -3.2770   -3.1780   -1.4266 N   0  0  0  0  0  0  0  0  0  0  0  0
   -1.3291   -2.6413    0.0032 C   0  0  0  0  0  0  0  0  0  0  0  0
    1.3184   -2.6330    1.1789 N   0  0  0  0  0  0  0  0  0  0  0  0
    2.5360   -2.6811    1.7750 C   0  0  0  0  0  0  0  0  0  0  0  0
    3.3129   -1.5700    1.8249 N   0  0  0  0  0  0  0  0  0  0  0  0
    5.1855    0.6232    1.4141 C   0  0  0  0  0  0  0  0  0  0  0  0
    6.1561    3.8860    1.6104 H   0  0  0  0  0  0  0  0  0  0  0  0
    3.7090    4.2067    1.5647 H   0  0  0  0  0  0  0  0  0  0  0  0
    2.1982    2.2788    1.4418 H   0  0  0  0  0  0  0  0  0  0  0  0
    1.3038    0.5868    0.2013 H   0  0  0  0  0  0  0  0  0  0  0  0
   -0.3172    0.0007   -1.5159 H   0  0  0  0  0  0  0  0  0  0  0  0
   -1.2019    0.4783   -0.0073 H   0  0  0  0  0  0  0  0  0  0  0  0
   -2.0548   -1.1555   -2.4105 H   0  0  0  0  0  0  0  0  0  0  0  0
   -3.4824    0.4320    0.7854 H   0  0  0  0  0  0  0  0  0  0  0  0
   -5.3183    2.0716    0.7335 H   0  0  0  0  0  0  0  0  0  0  0  0
   -6.3409    2.7371   -1.4231 H   0  0  0  0  0  0  0  0  0  0  0  0
   -5.5181    1.7511   -3.5421 H   0  0  0  0  0  0  0  0  0  0  0  0
   -3.6828    0.1089   -3.5199 H   0  0  0  0  0  0  0  0  0  0  0  0
   -3.3407   -1.9270    0.2664 H   0  0  0  0  0  0  0  0  0  0  0  0
   -2.6587   -3.3837   -2.2454 H   0  0  0  0  0  0  0  0  0  0  0  0
   -4.1722   -2.7907   -1.8042 H   0  0  0  0  0  0  0  0  0  0  0  0
   -1.4745   -3.0033    1.0445 H   0  0  0  0  0  0  0  0  0  0  0  0
   -0.8796   -3.4510   -0.6123 H   0  0  0  0  0  0  0  0  0  0  0  0
    2.8877   -3.6060    2.2108 H   0  0  0  0  0  0  0  0  0  0  0  0
    5.6110   -0.3730    1.3703 H   0  0  0  0  0  0  0  0  0  0  0  0
  1  2  3  0
  2  3  1  0
  3  4  2  0
  4  5  1  0
  5  6  2  0
  6  7  1  0
  7  8  1  0
  8  9  2  0
  9 10  1  0
 10 11  1  0
 11 12  1  0
 12 13  1  0
 13 14  1  0
 14 15  2  0
 15 16  1  0
 16 17  2  0
 17 18  1  0
 18 19  2  0
 13 20  1  0
 20 21  1  0
 20 22  1  0
 10 23  2  0
 23 24  1  0
 24 25  2  0
  7 26  2  0
 26  3  1  0
 25  8  1  0
 22 11  1  0
 19 14  1  0
  4 27  1  0
  5 28  1  0
  6 29  1  0
  9 30  1  0
 12 31  1  0
 12 32  1  0
 13 33  1  6
 15 34  1  0
 16 35  1  0
 17 36  1  0
 18 37  1  0
 19 38  1  0
 20 39  1  1
 21 40  1  0
 21 41  1  0
 22 42  1  0
 22 43  1  0
 24 44  1  0
 26 45  1  0
M  END
$$$$
