
     RDKit          3D

 52 55  0  0  0  0  0  0  0  0999 V2000
    3.8504    1.6865   -2.0490 N   0  0  0  0  0  0  0  0  0  0  0  0
    3.0184    1.8550   -0.8557 C   0  0  0  0  0  0  0  0  0  0  0  0
    2.7217    0.4867   -0.1482 C   0  0  2  0  0  0  0  0  0  0  0  0
    4.0195   -0.2165    0.3400 C   0  0  0  0  0  0  0  0  0  0  0  0
    5.2947    0.4047    0.3027 C   0  0  0  0  0  0  0  0  0  0  0  0
    6.4344   -0.2556    0.7700 C   0  0  0  0  0  0  0  0  0  0  0  0
    6.3362   -1.5370    1.3055 C   0  0  0  0  0  0  0  0  0  0  0  0
    5.0928   -2.1602    1.3891 C   0  0  0  0  0  0  0  0  0  0  0  0
    4.9636   -3.7615    2.0945 Cl  0  0  0  0  0  0  0  0  0  0  0  0
    3.9475   -1.5069    0.9230 C   0  0  0  0  0  0  0  0  0  0  0  0
    1.9523   -0.4575   -1.1328 C   0  0  0  0  0  0  0  0  0  0  0  0
    0.5485    0.0537   -1.4927 C   0  0  0  0  0  0  0  0  0  0  0  0
   -0.2864    0.2887   -0.2197 C   0  0  2  0  0  0  0  0  0  0  0  0
   -1.6589    0.7328   -0.5372 N   0  0  0  0  0  0  0  0  0  0  0  0
   -2.6606   -0.0721   -0.1653 N   0  0  0  0  0  0  0  0  0  0  0  0
   -3.9705    0.2151   -0.3982 C   0  0  0  0  0  0  0  0  0  0  0  0
   -5.0176   -0.7360    0.0559 C   0  0  0  0  0  0  0  0  0  0  0  0
   -6.2601   -0.8326   -0.6030 C   0  0  0  0  0  0  0  0  0  0  0  0
   -7.2272   -1.7415   -0.1623 C   0  0  0  0  0  0  0  0  0  0  0  0
   -6.9670   -2.5670    0.9332 C   0  0  0  0  0  0  0  0  0  0  0  0
   -5.7365   -2.4896    1.5880 C   0  0  0  0  0  0  0  0  0  0  0  0
   -4.7650   -1.5837    1.1517 C   0  0  0  0  0  0  0  0  0  0  0  0
   -4.2874    1.4153   -1.0442 C   0  0  0  0  0  0  0  0  0  0  0  0
   -3.2618    2.2650   -1.4399 C   0  0  0  0  0  0  0  0  0  0  0  0
   -1.9374    1.9140   -1.1828 C   0  0  0  0  0  0  0  0  0  0  0  0
   -1.0183    2.6953   -1.5479 O   0  0  0  0  0  0  0  0  0  0  0  0
    0.4117    1.2466    0.7642 C   0  0  0  0  0  0  0  0  0  0  0  0
    1.8305    0.7570    1.1047 C   0  0  0  0  0  0  0  0  0  0  0  0
    3.2288    1.4598   -2.8587 H   0  0  0  0  0  0  0  0  0  0  0  0
    4.2835    2.6120   -2.2715 H   0  0  0  0  0  0  0  0  0  0  0  0
    2.0878    2.3833   -1.1461 H   0  0  0  0  0  0  0  0  0  0  0  0
    3.5220    2.5423   -0.1401 H   0  0  0  0  0  0  0  0  0  0  0  0
    5.4412    1.4029   -0.0767 H   0  0  0  0  0  0  0  0  0  0  0  0
    7.3988    0.2339    0.7226 H   0  0  0  0  0  0  0  0  0  0  0  0
    7.2246   -2.0387    1.6674 H   0  0  0  0  0  0  0  0  0  0  0  0
    3.0005   -2.0133    1.0422 H   0  0  0  0  0  0  0  0  0  0  0  0
    1.8143   -1.4663   -0.6957 H   0  0  0  0  0  0  0  0  0  0  0  0
    2.5379   -0.6130   -2.0633 H   0  0  0  0  0  0  0  0  0  0  0  0
    0.6284    0.9680   -2.1113 H   0  0  0  0  0  0  0  0  0  0  0  0
    0.0401   -0.7121   -2.1182 H   0  0  0  0  0  0  0  0  0  0  0  0
   -0.3525   -0.6972    0.2986 H   0  0  0  0  0  0  0  0  0  0  0  0
   -6.4806   -0.2277   -1.4721 H   0  0  0  0  0  0  0  0  0  0  0  0
   -8.1776   -1.8102   -0.6757 H   0  0  0  0  0  0  0  0  0  0  0  0
   -7.7172   -3.2700    1.2717 H   0  0  0  0  0  0  0  0  0  0  0  0
   -5.5345   -3.1321    2.4354 H   0  0  0  0  0  0  0  0  0  0  0  0
   -3.8204   -1.5379    1.6795 H   0  0  0  0  0  0  0  0  0  0  0  0
   -5.3125    1.7109   -1.2224 H   0  0  0  0  0  0  0  0  0  0  0  0
   -3.4968    3.1974   -1.9390 H   0  0  0  0  0  0  0  0  0  0  0  0
   -0.1828    1.2902    1.7027 H   0  0  0  0  0  0  0  0  0  0  0  0
    0.4557    2.2804    0.3714 H   0  0  0  0  0  0  0  0  0  0  0  0
    2.3219    1.5077    1.7621 H   0  0  0  0  0  0  0  0  0  0  0  0
    1.7218   -0.1690    1.7092 H   0  0  0  0  0  0  0  0  0  0  0  0
  1  2  1  0
  3  2  1  6
  3  4  1  0
  4  5  2  0
  5  6  1  0
  6  7  2  0
  7  8  1  0
  8  9  1  0
  8 10  2  0
  3 11  1  0
 11 12  1  0
 12 13  1  0
 13 14  1  0
 14 15  1  0
 15 16  2  0
 16 17  1  0
 17 18  2  0
 18 19  1  0
 19 20  2  0
 20 21  1  0
 21 22  2  0
 16 23  1  0
 23 24  2  0
 24 25  1  0
 25 26  2  0
 13 27  1  0
 27 28  1  0
 28  3  1  0
 10  4  1  0
 25 14  1  0
 22 17  1  0
  1 29  1  0
  1 30  1  0
  2 31  1  0
  2 32  1  0
  5 33  1  0
  6 34  1  0
  7 35  1  0
 10 36  1  0
 11 37  1  0
 11 38  1  0
 12 39  1  0
 12 40  1  0
 13 41  1  1
 18 42  1  0
 19 43  1  0
 20 44  1  0
 21 45  1  0
 22 46  1  0
 23 47  1  0
 24 48  1  0
 27 49  1  0
 27 50  1  0
 28 51  1  0
 28 52  1  0
M  END
$$$$
