
     RDKit          3D

 55 57  0  0  0  0  0  0  0  0999 V2000
   -2.8468    1.1153    0.7284 C   0  0  0  0  0  0  0  0  0  0  0  0
   -2.5025   -0.1013   -0.0390 N   0  0  0  0  0  0  0  0  0  0  0  0
   -3.0403   -0.0254   -1.4164 C   0  0  0  0  0  0  0  0  0  0  0  0
   -4.5337   -0.2228   -1.4110 C   0  0  0  0  0  0  0  0  0  0  0  0
   -5.0737   -1.4781   -1.0890 C   0  0  0  0  0  0  0  0  0  0  0  0
   -6.4592   -1.6645   -1.0626 C   0  0  0  0  0  0  0  0  0  0  0  0
   -7.3170   -0.5966   -1.3540 C   0  0  0  0  0  0  0  0  0  0  0  0
   -8.7433   -0.7884   -1.3253 C   0  0  0  0  0  0  0  0  0  0  0  0
   -9.8901   -0.9426   -1.3023 N   0  0  0  0  0  0  0  0  0  0  0  0
   -6.7838    0.6591   -1.6704 C   0  0  0  0  0  0  0  0  0  0  0  0
   -5.3983    0.8465   -1.6974 C   0  0  0  0  0  0  0  0  0  0  0  0
   -1.0530   -0.4484   -0.0201 C   0  0  1  0  0  0  0  0  0  0  0  0
   -0.1067    0.7244   -0.4237 C   0  0  0  0  0  0  0  0  0  0  0  0
    0.6061    1.3600    0.7800 C   0  0  0  0  0  0  0  0  0  0  0  0
    1.4038    0.3270    1.6291 C   0  0  2  0  0  0  0  0  0  0  0  0
    2.9476    0.3930    1.4108 C   0  0  2  0  0  0  0  0  0  0  0  0
    3.4694    1.6618    1.9336 N   0  0  0  0  0  0  0  0  0  0  0  0
    3.3628    0.2267   -0.0743 C   0  0  0  0  0  0  0  0  0  0  0  0
    4.8437   -0.0309   -0.2164 C   0  0  0  0  0  0  0  0  0  0  0  0
    5.3538   -1.3154    0.0399 C   0  0  0  0  0  0  0  0  0  0  0  0
    6.7248   -1.5667   -0.0696 C   0  0  0  0  0  0  0  0  0  0  0  0
    7.2078   -2.8091    0.1778 F   0  0  0  0  0  0  0  0  0  0  0  0
    7.5979   -0.5378   -0.4318 C   0  0  0  0  0  0  0  0  0  0  0  0
    7.1020    0.7440   -0.6831 C   0  0  0  0  0  0  0  0  0  0  0  0
    5.7314    1.0022   -0.5755 C   0  0  0  0  0  0  0  0  0  0  0  0
    5.2748    2.2578   -0.8150 F   0  0  0  0  0  0  0  0  0  0  0  0
    0.8562   -1.1193    1.5074 C   0  0  0  0  0  0  0  0  0  0  0  0
   -0.6629   -1.1175    1.3212 C   0  0  0  0  0  0  0  0  0  0  0  0
   -2.4155    1.0930    1.7470 H   0  0  0  0  0  0  0  0  0  0  0  0
   -3.9472    1.1764    0.8622 H   0  0  0  0  0  0  0  0  0  0  0  0
   -2.5092    2.0396    0.2138 H   0  0  0  0  0  0  0  0  0  0  0  0
   -2.6119   -0.8271   -2.0574 H   0  0  0  0  0  0  0  0  0  0  0  0
   -2.7683    0.9403   -1.8985 H   0  0  0  0  0  0  0  0  0  0  0  0
   -4.4205   -2.3104   -0.8567 H   0  0  0  0  0  0  0  0  0  0  0  0
   -6.8608   -2.6394   -0.8135 H   0  0  0  0  0  0  0  0  0  0  0  0
   -7.4384    1.4930   -1.8939 H   0  0  0  0  0  0  0  0  0  0  0  0
   -5.0013    1.8251   -1.9368 H   0  0  0  0  0  0  0  0  0  0  0  0
   -0.8760   -1.2484   -0.7757 H   0  0  0  0  0  0  0  0  0  0  0  0
    0.6683    0.3358   -1.1183 H   0  0  0  0  0  0  0  0  0  0  0  0
   -0.6451    1.5086   -0.9932 H   0  0  0  0  0  0  0  0  0  0  0  0
    1.2626    2.1835    0.4273 H   0  0  0  0  0  0  0  0  0  0  0  0
   -0.1589    1.8427    1.4245 H   0  0  0  0  0  0  0  0  0  0  0  0
    1.2265    0.6098    2.6921 H   0  0  0  0  0  0  0  0  0  0  0  0
    3.4001   -0.4393    1.9990 H   0  0  0  0  0  0  0  0  0  0  0  0
    4.5141    1.6264    1.9212 H   0  0  0  0  0  0  0  0  0  0  0  0
    3.2131    1.7406    2.9446 H   0  0  0  0  0  0  0  0  0  0  0  0
    3.0740    1.1286   -0.6544 H   0  0  0  0  0  0  0  0  0  0  0  0
    2.8287   -0.6237   -0.5422 H   0  0  0  0  0  0  0  0  0  0  0  0
    4.6873   -2.1201    0.3256 H   0  0  0  0  0  0  0  0  0  0  0  0
    8.6594   -0.7319   -0.5157 H   0  0  0  0  0  0  0  0  0  0  0  0
    7.7822    1.5393   -0.9596 H   0  0  0  0  0  0  0  0  0  0  0  0
    1.3125   -1.6645    0.6566 H   0  0  0  0  0  0  0  0  0  0  0  0
    1.1100   -1.6875    2.4291 H   0  0  0  0  0  0  0  0  0  0  0  0
   -1.1213   -0.6063    2.1912 H   0  0  0  0  0  0  0  0  0  0  0  0
   -1.0350   -2.1654    1.3306 H   0  0  0  0  0  0  0  0  0  0  0  0
  1  2  1  0
  2  3  1  0
  3  4  1  0
  4  5  2  0
  5  6  1  0
  6  7  2  0
  7  8  1  0
  8  9  3  0
  7 10  1  0
 10 11  2  0
  2 12  1  0
 12 13  1  0
 13 14  1  0
 14 15  1  0
 15 16  1  0
 16 17  1  0
 16 18  1  0
 18 19  1  0
 19 20  2  0
 20 21  1  0
 21 22  1  0
 21 23  2  0
 23 24  1  0
 24 25  2  0
 25 26  1  0
 15 27  1  0
 27 28  1  0
 11  4  1  0
 28 12  1  0
 25 19  1  0
  1 29  1  0
  1 30  1  0
  1 31  1  0
  3 32  1  0
  3 33  1  0
  5 34  1  0
  6 35  1  0
 10 36  1  0
 11 37  1  0
 12 38  1  6
 13 39  1  0
 13 40  1  0
 14 41  1  0
 14 42  1  0
 15 43  1  1
 16 44  1  1
 17 45  1  0
 17 46  1  0
 18 47  1  0
 18 48  1  0
 20 49  1  0
 23 50  1  0
 24 51  1  0
 27 52  1  0
 27 53  1  0
 28 54  1  0
 28 55  1  0
M  END
$$$$
