
     RDKit          3D

 55 58  0  0  0  0  0  0  0  0999 V2000
    2.5586   -1.1394   -1.4498 N   0  0  0  0  0  0  0  0  0  0  0  0
    2.7529    0.3143   -1.4502 C   0  0  1  0  0  0  0  0  0  0  0  0
    1.4943    1.0621   -1.9512 C   0  0  0  0  0  0  0  0  0  0  0  0
    0.3030    0.8867   -1.0512 C   0  0  0  0  0  0  0  0  0  0  0  0
    0.0962    1.7280   -0.1346 O   0  0  0  0  0  0  0  0  0  0  0  0
   -0.5772   -0.2400   -1.2244 N   0  0  0  0  0  0  0  0  0  0  0  0
   -1.6578   -0.6013   -0.2820 C   0  0  0  0  0  0  0  0  0  0  0  0
   -2.6007    0.5839   -0.1337 C   0  0  0  0  0  0  0  0  0  0  0  0
   -3.2971    0.8630    0.9990 N   0  0  0  0  0  0  0  0  0  0  0  0
   -4.1405    1.9108    0.8187 C   0  0  0  0  0  0  0  0  0  0  0  0
   -4.9753    2.4306    1.8093 C   0  0  0  0  0  0  0  0  0  0  0  0
   -5.8102    3.5151    1.4878 C   0  0  0  0  0  0  0  0  0  0  0  0
   -5.8030    4.0611    0.1883 C   0  0  0  0  0  0  0  0  0  0  0  0
   -4.9613    3.5272   -0.8006 C   0  0  0  0  0  0  0  0  0  0  0  0
   -4.1426    2.4555   -0.4544 C   0  0  0  0  0  0  0  0  0  0  0  0
   -3.0576    1.6096   -1.4110 S   0  0  0  0  0  0  0  0  0  0  0  0
   -2.4861   -1.7842   -0.8943 C   0  0  0  0  0  0  0  0  0  0  0  0
   -3.2405   -2.6160    0.1466 C   0  0  0  0  0  0  0  0  0  0  0  0
   -2.0552   -3.4646    1.1720 S   0  0  0  0  0  0  0  0  0  0  0  0
   -2.6049   -3.6345    2.5602 O   0  0  0  0  0  0  0  0  0  0  0  0
   -1.7292   -4.8098    0.5871 O   0  0  0  0  0  0  0  0  0  0  0  0
   -0.5934   -2.4458    1.2073 C   0  0  0  0  0  0  0  0  0  0  0  0
   -1.0133   -0.9776    1.1032 C   0  0  0  0  0  0  0  0  0  0  0  0
    3.2021    0.8039   -0.0575 C   0  0  0  0  0  0  0  0  0  0  0  0
    4.5254    0.1969    0.3390 C   0  0  0  0  0  0  0  0  0  0  0  0
    5.7226    0.7681   -0.1249 C   0  0  0  0  0  0  0  0  0  0  0  0
    6.9546    0.1991    0.2121 C   0  0  0  0  0  0  0  0  0  0  0  0
    8.1039    0.7605   -0.2382 F   0  0  0  0  0  0  0  0  0  0  0  0
    7.0009   -0.9487    1.0090 C   0  0  0  0  0  0  0  0  0  0  0  0
    8.1950   -1.5022    1.3356 F   0  0  0  0  0  0  0  0  0  0  0  0
    5.8151   -1.5296    1.4668 C   0  0  0  0  0  0  0  0  0  0  0  0
    4.5797   -0.9650    1.1329 C   0  0  0  0  0  0  0  0  0  0  0  0
    3.4412   -1.5523    1.5819 F   0  0  0  0  0  0  0  0  0  0  0  0
    2.2386   -1.4430   -2.3981 H   0  0  0  0  0  0  0  0  0  0  0  0
    1.8143   -1.3961   -0.7632 H   0  0  0  0  0  0  0  0  0  0  0  0
    3.5697    0.5472   -2.1697 H   0  0  0  0  0  0  0  0  0  0  0  0
    1.2372    0.7111   -2.9737 H   0  0  0  0  0  0  0  0  0  0  0  0
    1.7263    2.1462   -2.0391 H   0  0  0  0  0  0  0  0  0  0  0  0
   -0.4116   -0.8370   -2.0664 H   0  0  0  0  0  0  0  0  0  0  0  0
   -4.9817    2.0083    2.8060 H   0  0  0  0  0  0  0  0  0  0  0  0
   -6.4637    3.9324    2.2427 H   0  0  0  0  0  0  0  0  0  0  0  0
   -6.4507    4.8949   -0.0492 H   0  0  0  0  0  0  0  0  0  0  0  0
   -4.9508    3.9367   -1.8023 H   0  0  0  0  0  0  0  0  0  0  0  0
   -1.8153   -2.4785   -1.4475 H   0  0  0  0  0  0  0  0  0  0  0  0
   -3.2117   -1.4040   -1.6470 H   0  0  0  0  0  0  0  0  0  0  0  0
   -3.8862   -3.3632   -0.3613 H   0  0  0  0  0  0  0  0  0  0  0  0
   -3.8811   -1.9593    0.7724 H   0  0  0  0  0  0  0  0  0  0  0  0
   -0.0481   -2.6193    2.1591 H   0  0  0  0  0  0  0  0  0  0  0  0
    0.0726   -2.7150    0.3609 H   0  0  0  0  0  0  0  0  0  0  0  0
   -1.7165   -0.7835    1.9412 H   0  0  0  0  0  0  0  0  0  0  0  0
   -0.1233   -0.3483    1.3099 H   0  0  0  0  0  0  0  0  0  0  0  0
    3.3004    1.9118   -0.0695 H   0  0  0  0  0  0  0  0  0  0  0  0
    2.4297    0.5614    0.7039 H   0  0  0  0  0  0  0  0  0  0  0  0
    5.6994    1.6530   -0.7492 H   0  0  0  0  0  0  0  0  0  0  0  0
    5.8530   -2.4212    2.0796 H   0  0  0  0  0  0  0  0  0  0  0  0
  1  2  1  0
  2  3  1  0
  3  4  1  0
  4  5  2  0
  4  6  1  0
  6  7  1  0
  7  8  1  0
  8  9  2  0
  9 10  1  0
 10 11  2  0
 11 12  1  0
 12 13  2  0
 13 14  1  0
 14 15  2  0
 15 16  1  0
  7 17  1  0
 17 18  1  0
 18 19  1  0
 19 20  2  0
 19 21  2  0
 19 22  1  0
 22 23  1  0
  2 24  1  0
 24 25  1  0
 25 26  2  0
 26 27  1  0
 27 28  1  0
 27 29  2  0
 29 30  1  0
 29 31  1  0
 31 32  2  0
 32 33  1  0
 23  7  1  0
 32 25  1  0
 16  8  1  0
 15 10  1  0
  1 34  1  0
  1 35  1  0
  2 36  1  6
  3 37  1  0
  3 38  1  0
  6 39  1  0
 11 40  1  0
 12 41  1  0
 13 42  1  0
 14 43  1  0
 17 44  1  0
 17 45  1  0
 18 46  1  0
 18 47  1  0
 22 48  1  0
 22 49  1  0
 23 50  1  0
 23 51  1  0
 24 52  1  0
 24 53  1  0
 26 54  1  0
 31 55  1  0
M  END
$$$$
