
     RDKit          3D

 66 69  0  0  0  0  0  0  0  0999 V2000
   -1.9434    3.8237   -1.7895 C   0  0  0  0  0  0  0  0  0  0  0  0
   -0.7845    2.8868   -2.0351 C   0  0  0  0  0  0  0  0  0  0  0  0
    0.1845    3.1753   -3.1516 C   0  0  0  0  0  0  0  0  0  0  0  0
   -0.5908    1.7900   -1.2732 C   0  0  0  0  0  0  0  0  0  0  0  0
   -1.4888    1.4200   -0.1192 C   0  0  0  0  0  0  0  0  0  0  0  0
   -1.0212    0.1861    0.5220 N   0  0  0  0  0  0  0  0  0  0  0  0
   -1.4914   -1.0795    0.3456 C   0  0  0  0  0  0  0  0  0  0  0  0
   -2.6582   -1.4057   -0.4235 N   0  0  0  0  0  0  0  0  0  0  0  0
   -2.5610   -2.4593   -1.4414 C   0  0  0  0  0  0  0  0  0  0  0  0
   -3.9077   -2.6855   -2.1373 C   0  0  0  0  0  0  0  0  0  0  0  0
   -5.0378   -2.9358   -1.1213 C   0  0  0  0  0  0  0  0  0  0  0  0
   -4.9650   -2.0378    0.1475 C   0  0  0  0  0  0  0  0  0  0  0  0
   -4.5788   -2.8395    1.3125 N   0  0  0  0  0  0  0  0  0  0  0  0
   -3.9717   -0.8770   -0.0355 C   0  0  0  0  0  0  0  0  0  0  0  0
   -0.7352   -2.0319    0.9479 N   0  0  0  0  0  0  0  0  0  0  0  0
    0.2419   -1.3090    1.5269 C   0  0  0  0  0  0  0  0  0  0  0  0
    0.0869    0.0085    1.2710 C   0  0  0  0  0  0  0  0  0  0  0  0
    1.0405    0.9252    1.7022 C   0  0  0  0  0  0  0  0  0  0  0  0
    0.8943    2.1440    1.4254 O   0  0  0  0  0  0  0  0  0  0  0  0
    2.1366    0.4619    2.4127 N   0  0  0  0  0  0  0  0  0  0  0  0
    3.2657    1.3410    2.8491 C   0  0  0  0  0  0  0  0  0  0  0  0
    2.9172    2.8203    3.0852 C   0  0  0  0  0  0  0  0  0  0  0  0
    4.4625    1.2057    1.9312 C   0  0  0  0  0  0  0  0  0  0  0  0
    5.6117    1.4379    2.3946 O   0  0  0  0  0  0  0  0  0  0  0  0
    4.3421    0.7552    0.5303 C   0  0  0  0  0  0  0  0  0  0  0  0
    3.5170    1.4317   -0.3828 C   0  0  0  0  0  0  0  0  0  0  0  0
    3.3995    0.9723   -1.6984 C   0  0  0  0  0  0  0  0  0  0  0  0
    4.1113   -0.1559   -2.1136 C   0  0  0  0  0  0  0  0  0  0  0  0
    4.9499   -0.8217   -1.2162 C   0  0  0  0  0  0  0  0  0  0  0  0
    5.0706   -0.3653    0.0998 C   0  0  0  0  0  0  0  0  0  0  0  0
    2.2567   -0.9029    2.6584 C   0  0  0  0  0  0  0  0  0  0  0  0
    3.2732   -1.3443    3.2675 O   0  0  0  0  0  0  0  0  0  0  0  0
    1.2964   -1.7928    2.2314 N   0  0  0  0  0  0  0  0  0  0  0  0
    1.4529   -3.2383    2.4448 C   0  0  0  0  0  0  0  0  0  0  0  0
   -2.9032    3.2784   -1.9075 H   0  0  0  0  0  0  0  0  0  0  0  0
   -1.9409    4.6714   -2.5058 H   0  0  0  0  0  0  0  0  0  0  0  0
   -1.8807    4.2438   -0.7638 H   0  0  0  0  0  0  0  0  0  0  0  0
    0.2354    2.3066   -3.8420 H   0  0  0  0  0  0  0  0  0  0  0  0
   -0.1193    4.0668   -3.7386 H   0  0  0  0  0  0  0  0  0  0  0  0
    1.1931    3.3661   -2.7289 H   0  0  0  0  0  0  0  0  0  0  0  0
    0.2543    1.1410   -1.4917 H   0  0  0  0  0  0  0  0  0  0  0  0
   -1.5082    2.2397    0.6292 H   0  0  0  0  0  0  0  0  0  0  0  0
   -2.5210    1.2956   -0.4958 H   0  0  0  0  0  0  0  0  0  0  0  0
   -2.2327   -3.4085   -0.9644 H   0  0  0  0  0  0  0  0  0  0  0  0
   -1.8052   -2.1678   -2.2024 H   0  0  0  0  0  0  0  0  0  0  0  0
   -4.1537   -1.7888   -2.7476 H   0  0  0  0  0  0  0  0  0  0  0  0
   -3.8291   -3.5509   -2.8303 H   0  0  0  0  0  0  0  0  0  0  0  0
   -6.0084   -2.7619   -1.6352 H   0  0  0  0  0  0  0  0  0  0  0  0
   -5.0230   -4.0109   -0.8359 H   0  0  0  0  0  0  0  0  0  0  0  0
   -5.9732   -1.6019    0.3344 H   0  0  0  0  0  0  0  0  0  0  0  0
   -5.3254   -3.5524    1.4824 H   0  0  0  0  0  0  0  0  0  0  0  0
   -4.5814   -2.2224    2.1573 H   0  0  0  0  0  0  0  0  0  0  0  0
   -4.3456   -0.1979   -0.8321 H   0  0  0  0  0  0  0  0  0  0  0  0
   -3.9010   -0.2852    0.9043 H   0  0  0  0  0  0  0  0  0  0  0  0
    3.5941    0.9898    3.8542 H   0  0  0  0  0  0  0  0  0  0  0  0
    3.7206    3.3009    3.6842 H   0  0  0  0  0  0  0  0  0  0  0  0
    1.9707    2.9089    3.6598 H   0  0  0  0  0  0  0  0  0  0  0  0
    2.8454    3.3835    2.1315 H   0  0  0  0  0  0  0  0  0  0  0  0
    2.9799    2.3215   -0.0866 H   0  0  0  0  0  0  0  0  0  0  0  0
    2.7618    1.4933   -2.3991 H   0  0  0  0  0  0  0  0  0  0  0  0
    4.0183   -0.5098   -3.1321 H   0  0  0  0  0  0  0  0  0  0  0  0
    5.5049   -1.6927   -1.5396 H   0  0  0  0  0  0  0  0  0  0  0  0
    5.7169   -0.8963    0.7881 H   0  0  0  0  0  0  0  0  0  0  0  0
    2.1183   -3.6596    1.6621 H   0  0  0  0  0  0  0  0  0  0  0  0
    1.8894   -3.4423    3.4458 H   0  0  0  0  0  0  0  0  0  0  0  0
    0.4732   -3.7611    2.4074 H   0  0  0  0  0  0  0  0  0  0  0  0
  1  2  1  0
  2  3  1  0
  2  4  2  3
  4  5  1  0
  5  6  1  0
  6  7  1  0
  7  8  1  0
  8  9  1  0
  9 10  1  0
 10 11  1  0
 11 12  1  0
 12 13  1  0
 12 14  1  0
  7 15  2  0
 15 16  1  0
 16 17  2  0
 17 18  1  0
 18 19  2  0
 18 20  1  0
 20 21  1  0
 21 22  1  0
 21 23  1  0
 23 24  2  0
 23 25  1  0
 25 26  2  0
 26 27  1  0
 27 28  2  0
 28 29  1  0
 29 30  2  0
 20 31  1  0
 31 32  2  0
 31 33  1  0
 33 34  1  0
 17  6  1  0
 30 25  1  0
 14  8  1  0
 33 16  1  0
  1 35  1  0
  1 36  1  0
  1 37  1  0
  3 38  1  0
  3 39  1  0
  3 40  1  0
  4 41  1  0
  5 42  1  0
  5 43  1  0
  9 44  1  0
  9 45  1  0
 10 46  1  0
 10 47  1  0
 11 48  1  0
 11 49  1  0
 12 50  1  0
 13 51  1  0
 13 52  1  0
 14 53  1  0
 14 54  1  0
 21 55  1  0
 22 56  1  0
 22 57  1  0
 22 58  1  0
 26 59  1  0
 27 60  1  0
 28 61  1  0
 29 62  1  0
 30 63  1  0
 34 64  1  0
 34 65  1  0
 34 66  1  0
M  END
$$$$
