
     RDKit          3D

 58 59  0  0  0  0  0  0  0  0999 V2000
    0.6878    0.0000    0.0000 Cl  0  0  0  0  0  0  0  0  0  0  0  0
    2.7909    0.5399   -0.2362 N   0  0  0  0  0  0  0  0  0  0  0  0
    3.4153   -0.7427    0.1063 C   0  0  1  0  0  0  0  0  0  0  0  0
    2.3995   -1.9043    0.0314 C   0  0  0  0  0  0  0  0  0  0  0  0
    1.3344   -1.7757    1.0920 C   0  0  0  0  0  0  0  0  0  0  0  0
    1.6120   -2.1656    2.2595 O   0  0  0  0  0  0  0  0  0  0  0  0
    0.0467   -1.1730    0.8245 N   0  0  0  0  0  0  0  0  0  0  0  0
   -0.7536   -0.6809    1.9575 C   0  0  0  0  0  0  0  0  0  0  0  0
   -1.7826   -1.7269    2.4073 C   0  0  0  0  0  0  0  0  0  0  0  0
   -2.4651   -2.4590    1.2433 C   0  0  0  0  0  0  0  0  0  0  0  0
   -2.9213   -1.5142    0.2123 N   0  0  0  0  0  0  0  0  0  0  0  0
   -4.3330   -1.3820   -0.0313 C   0  0  0  0  0  0  0  0  0  0  0  0
   -5.0327   -2.4199   -0.1861 O   0  0  0  0  0  0  0  0  0  0  0  0
   -4.9787   -0.0532   -0.1088 C   0  0  0  0  0  0  0  0  0  0  0  0
   -4.4910    1.0304    0.6360 C   0  0  0  0  0  0  0  0  0  0  0  0
   -5.1201    2.2740    0.5618 C   0  0  0  0  0  0  0  0  0  0  0  0
   -6.2502    2.4285   -0.2552 C   0  0  0  0  0  0  0  0  0  0  0  0
   -6.9461    3.7221   -0.3643 C   0  0  0  0  0  0  0  0  0  0  0  0
   -6.5372    4.7287    0.2753 O   0  0  0  0  0  0  0  0  0  0  0  0
   -8.0666    3.8357   -1.1821 O   0  0  0  0  0  0  0  0  0  0  0  0
   -6.7175    1.3604   -0.9573 N   0  0  0  0  0  0  0  0  0  0  0  0
   -6.1211    0.1400   -0.9003 C   0  0  0  0  0  0  0  0  0  0  0  0
   -1.9857   -0.7725   -0.6578 C   0  0  0  0  0  0  0  0  0  0  0  0
   -0.5129   -1.2233   -0.5427 C   0  0  0  0  0  0  0  0  0  0  0  0
    4.6053   -1.0117   -0.8343 C   0  0  0  0  0  0  0  0  0  0  0  0
    5.6671    0.0522   -0.7000 C   0  0  0  0  0  0  0  0  0  0  0  0
    5.6885    1.1417   -1.5878 C   0  0  0  0  0  0  0  0  0  0  0  0
    6.6525    2.1454   -1.4515 C   0  0  0  0  0  0  0  0  0  0  0  0
    6.6663    3.1907   -2.3154 F   0  0  0  0  0  0  0  0  0  0  0  0
    7.5981    2.0731   -0.4242 C   0  0  0  0  0  0  0  0  0  0  0  0
    8.5327    3.0465   -0.2902 F   0  0  0  0  0  0  0  0  0  0  0  0
    7.5780    0.9987    0.4694 C   0  0  0  0  0  0  0  0  0  0  0  0
    6.6158   -0.0080    0.3380 C   0  0  0  0  0  0  0  0  0  0  0  0
    6.6080   -1.0377    1.2223 F   0  0  0  0  0  0  0  0  0  0  0  0
   -0.6878    0.0000    0.0000 H   0  0  0  0  0  0  0  0  0  0  0  0
    2.3117    0.4599   -1.1625 H   0  0  0  0  0  0  0  0  0  0  0  0
    2.0686    0.7762    0.4816 H   0  0  0  0  0  0  0  0  0  0  0  0
    3.8060   -0.6833    1.1478 H   0  0  0  0  0  0  0  0  0  0  0  0
    1.9656   -1.9677   -0.9868 H   0  0  0  0  0  0  0  0  0  0  0  0
    2.9324   -2.8655    0.2017 H   0  0  0  0  0  0  0  0  0  0  0  0
   -0.1001   -0.4186    2.8180 H   0  0  0  0  0  0  0  0  0  0  0  0
   -1.2612    0.2670    1.6855 H   0  0  0  0  0  0  0  0  0  0  0  0
   -1.2778   -2.4809    3.0493 H   0  0  0  0  0  0  0  0  0  0  0  0
   -2.5561   -1.2222    3.0260 H   0  0  0  0  0  0  0  0  0  0  0  0
   -1.7756   -3.2070    0.7975 H   0  0  0  0  0  0  0  0  0  0  0  0
   -3.3212   -3.0363    1.6566 H   0  0  0  0  0  0  0  0  0  0  0  0
   -3.6370    0.9116    1.2899 H   0  0  0  0  0  0  0  0  0  0  0  0
   -4.7314    3.1018    1.1416 H   0  0  0  0  0  0  0  0  0  0  0  0
   -8.5586    4.7168   -1.2703 H   0  0  0  0  0  0  0  0  0  0  0  0
   -6.5330   -0.6748   -1.4818 H   0  0  0  0  0  0  0  0  0  0  0  0
   -2.0534    0.3158   -0.4550 H   0  0  0  0  0  0  0  0  0  0  0  0
   -2.2944   -0.9166   -1.7164 H   0  0  0  0  0  0  0  0  0  0  0  0
    0.0902   -0.5666   -1.2041 H   0  0  0  0  0  0  0  0  0  0  0  0
   -0.4357   -2.2607   -0.9349 H   0  0  0  0  0  0  0  0  0  0  0  0
    4.2477   -1.0650   -1.8866 H   0  0  0  0  0  0  0  0  0  0  0  0
    5.0533   -2.0023   -0.6001 H   0  0  0  0  0  0  0  0  0  0  0  0
    4.9568    1.2141   -2.3831 H   0  0  0  0  0  0  0  0  0  0  0  0
    8.3077    0.9471    1.2673 H   0  0  0  0  0  0  0  0  0  0  0  0
  2  3  1  0
  3  4  1  0
  4  5  1  0
  5  6  2  0
  5  7  1  0
  7  8  1  0
  8  9  1  0
  9 10  1  0
 10 11  1  0
 11 12  1  0
 12 13  2  0
 12 14  1  0
 14 15  2  0
 15 16  1  0
 16 17  2  0
 17 18  1  0
 18 19  2  0
 18 20  1  0
 17 21  1  0
 21 22  2  0
 11 23  1  0
 23 24  1  0
  3 25  1  0
 25 26  1  0
 26 27  2  0
 27 28  1  0
 28 29  1  0
 28 30  2  0
 30 31  1  0
 30 32  1  0
 32 33  2  0
 33 34  1  0
 24  7  1  0
 33 26  1  0
 22 14  1  0
  1 35  1  0
  2 36  1  0
  2 37  1  0
  3 38  1  1
  4 39  1  0
  4 40  1  0
  8 41  1  0
  8 42  1  0
  9 43  1  0
  9 44  1  0
 10 45  1  0
 10 46  1  0
 15 47  1  0
 16 48  1  0
 20 49  1  0
 22 50  1  0
 23 51  1  0
 23 52  1  0
 24 53  1  0
 24 54  1  0
 25 55  1  0
 25 56  1  0
 27 57  1  0
 32 58  1  0
M  END
$$$$
