
     RDKit          3D

 55 57  0  0  0  0  0  0  0  0999 V2000
   -3.2458    1.2147   -2.2650 N   0  0  0  0  0  0  0  0  0  0  0  0
   -2.6431    0.1995   -1.3959 C   0  0  1  0  0  0  0  0  0  0  0  0
   -1.1184    0.1232   -1.6355 C   0  0  0  0  0  0  0  0  0  0  0  0
   -0.5113   -1.0845   -0.9673 C   0  0  0  0  0  0  0  0  0  0  0  0
   -0.6226   -2.2020   -1.5409 O   0  0  0  0  0  0  0  0  0  0  0  0
    0.1165   -1.0191    0.3296 N   0  0  0  0  0  0  0  0  0  0  0  0
    0.1693   -2.1848    1.1990 C   0  0  0  0  0  0  0  0  0  0  0  0
    0.7348   -1.6931    2.5243 C   0  0  0  0  0  0  0  0  0  0  0  0
    0.5894   -0.1764    2.4889 C   0  0  0  0  0  0  0  0  0  0  0  0
    0.5707    0.1955    1.0041 C   0  0  1  0  0  0  0  0  0  0  0  0
    1.9813    0.5977    0.5276 C   0  0  0  0  0  0  0  0  0  0  0  0
    1.9723    0.9825   -0.8863 N   0  0  0  0  0  0  0  0  0  0  0  0
    3.4837    1.7310   -1.3028 S   0  0  0  0  0  0  0  0  0  0  0  0
    3.6311    3.0257   -0.5524 O   0  0  0  0  0  0  0  0  0  0  0  0
    3.4983    2.0313   -2.7752 O   0  0  0  0  0  0  0  0  0  0  0  0
    4.8243    0.6526   -0.9209 C   0  0  0  0  0  0  0  0  0  0  0  0
    5.1088   -0.4316   -1.7624 C   0  0  0  0  0  0  0  0  0  0  0  0
    6.1535   -1.3075   -1.4518 C   0  0  0  0  0  0  0  0  0  0  0  0
    6.9158   -1.1073   -0.2959 C   0  0  0  0  0  0  0  0  0  0  0  0
    8.2242   -2.2083    0.0947 Cl  0  0  0  0  0  0  0  0  0  0  0  0
    6.6302   -0.0305    0.5504 C   0  0  0  0  0  0  0  0  0  0  0  0
    5.5859    0.8465    0.2409 C   0  0  0  0  0  0  0  0  0  0  0  0
   -2.9738    0.5129    0.0781 C   0  0  0  0  0  0  0  0  0  0  0  0
   -4.4605    0.4715    0.3291 C   0  0  0  0  0  0  0  0  0  0  0  0
   -5.2151    1.6567    0.2924 C   0  0  0  0  0  0  0  0  0  0  0  0
   -6.5973    1.6198    0.4987 C   0  0  0  0  0  0  0  0  0  0  0  0
   -7.2378    0.4012    0.7362 C   0  0  0  0  0  0  0  0  0  0  0  0
   -6.4978   -0.7837    0.7648 C   0  0  0  0  0  0  0  0  0  0  0  0
   -5.1144   -0.7538    0.5589 C   0  0  0  0  0  0  0  0  0  0  0  0
   -4.4147   -1.9167    0.5818 F   0  0  0  0  0  0  0  0  0  0  0  0
   -2.7504    2.1265   -2.1293 H   0  0  0  0  0  0  0  0  0  0  0  0
   -3.1118    0.9289   -3.2623 H   0  0  0  0  0  0  0  0  0  0  0  0
   -3.0887   -0.7878   -1.6560 H   0  0  0  0  0  0  0  0  0  0  0  0
   -0.9274    0.0370   -2.7274 H   0  0  0  0  0  0  0  0  0  0  0  0
   -0.6339    1.0649   -1.3123 H   0  0  0  0  0  0  0  0  0  0  0  0
    0.8222   -2.9680    0.7567 H   0  0  0  0  0  0  0  0  0  0  0  0
   -0.8570   -2.5867    1.3471 H   0  0  0  0  0  0  0  0  0  0  0  0
    0.1904   -2.1322    3.3884 H   0  0  0  0  0  0  0  0  0  0  0  0
    1.8121   -1.9608    2.5942 H   0  0  0  0  0  0  0  0  0  0  0  0
    1.4030    0.3234    3.0592 H   0  0  0  0  0  0  0  0  0  0  0  0
   -0.3852    0.1032    2.9476 H   0  0  0  0  0  0  0  0  0  0  0  0
   -0.1397    1.0357    0.8588 H   0  0  0  0  0  0  0  0  0  0  0  0
    2.6874   -0.2482    0.6897 H   0  0  0  0  0  0  0  0  0  0  0  0
    2.3193    1.4587    1.1461 H   0  0  0  0  0  0  0  0  0  0  0  0
    1.9154    0.1101   -1.4598 H   0  0  0  0  0  0  0  0  0  0  0  0
    4.5191   -0.6007   -2.6546 H   0  0  0  0  0  0  0  0  0  0  0  0
    6.3671   -2.1419   -2.1075 H   0  0  0  0  0  0  0  0  0  0  0  0
    7.2136    0.1257    1.4488 H   0  0  0  0  0  0  0  0  0  0  0  0
    5.3688    1.6690    0.9099 H   0  0  0  0  0  0  0  0  0  0  0  0
   -2.4812   -0.2242    0.7471 H   0  0  0  0  0  0  0  0  0  0  0  0
   -2.5680    1.5123    0.3500 H   0  0  0  0  0  0  0  0  0  0  0  0
   -4.7338    2.6080    0.1019 H   0  0  0  0  0  0  0  0  0  0  0  0
   -7.1725    2.5363    0.4717 H   0  0  0  0  0  0  0  0  0  0  0  0
   -8.3081    0.3745    0.8947 H   0  0  0  0  0  0  0  0  0  0  0  0
   -6.9980   -1.7266    0.9442 H   0  0  0  0  0  0  0  0  0  0  0  0
  1  2  1  0
  2  3  1  0
  3  4  1  0
  4  5  2  0
  4  6  1  0
  6  7  1  0
  7  8  1  0
  8  9  1  0
  9 10  1  0
 10 11  1  0
 11 12  1  0
 12 13  1  0
 13 14  2  0
 13 15  2  0
 13 16  1  0
 16 17  2  0
 17 18  1  0
 18 19  2  0
 19 20  1  0
 19 21  1  0
 21 22  2  0
  2 23  1  0
 23 24  1  0
 24 25  2  0
 25 26  1  0
 26 27  2  0
 27 28  1  0
 28 29  2  0
 29 30  1  0
 10  6  1  0
 22 16  1  0
 29 24  1  0
  1 31  1  0
  1 32  1  0
  2 33  1  6
  3 34  1  0
  3 35  1  0
  7 36  1  0
  7 37  1  0
  8 38  1  0
  8 39  1  0
  9 40  1  0
  9 41  1  0
 10 42  1  1
 11 43  1  0
 11 44  1  0
 12 45  1  0
 17 46  1  0
 18 47  1  0
 21 48  1  0
 22 49  1  0
 23 50  1  0
 23 51  1  0
 25 52  1  0
 26 53  1  0
 27 54  1  0
 28 55  1  0
M  END
$$$$
