
     RDKit          3D

 40 42  0  0  0  0  0  0  0  0999 V2000
    1.4338   -1.2611   -0.2023 O   0  0  0  0  0  0  0  0  0  0  0  0
    1.4990   -0.0054   -0.1162 C   0  0  0  0  0  0  0  0  0  0  0  0
    2.7538    0.6669   -0.3117 N   0  0  0  0  0  0  0  0  0  0  0  0
    4.0303    0.0048   -0.2952 C   0  0  0  0  0  0  0  0  0  0  0  0
    4.2790   -1.0899    0.5542 C   0  0  0  0  0  0  0  0  0  0  0  0
    5.5370   -1.7006    0.5674 C   0  0  0  0  0  0  0  0  0  0  0  0
    6.5595   -1.2185   -0.2542 C   0  0  0  0  0  0  0  0  0  0  0  0
    7.7789   -1.8111   -0.2382 F   0  0  0  0  0  0  0  0  0  0  0  0
    6.3276   -0.1185   -1.0842 C   0  0  0  0  0  0  0  0  0  0  0  0
    5.0713    0.4953   -1.0995 C   0  0  0  0  0  0  0  0  0  0  0  0
    0.2772    0.7725    0.1679 C   0  0  0  0  0  0  0  0  0  0  0  0
    0.2218    2.0642    0.6638 C   0  0  0  0  0  0  0  0  0  0  0  0
   -1.0567    2.3854    0.9478 N   0  0  0  0  0  0  0  0  0  0  0  0
   -1.8214    1.3482    0.6396 N   0  0  0  0  0  0  0  0  0  0  0  0
   -3.2491    1.3433    0.8167 C   0  0  0  0  0  0  0  0  0  0  0  0
   -3.8200    2.0097    1.9141 C   0  0  0  0  0  0  0  0  0  0  0  0
   -5.2071    2.0237    2.0900 C   0  0  0  0  0  0  0  0  0  0  0  0
   -6.0367    1.3836    1.1659 C   0  0  0  0  0  0  0  0  0  0  0  0
   -5.4807    0.7345    0.0608 C   0  0  0  0  0  0  0  0  0  0  0  0
   -4.0941    0.7178   -0.1186 C   0  0  0  0  0  0  0  0  0  0  0  0
   -1.0441    0.3542    0.1578 C   0  0  0  0  0  0  0  0  0  0  0  0
   -1.5189   -0.9603   -0.1625 N   0  0  0  0  0  0  0  0  0  0  0  0
   -1.2584   -1.5832   -1.4277 C   0  0  0  0  0  0  0  0  0  0  0  0
   -0.6370   -0.9568   -2.3293 O   0  0  0  0  0  0  0  0  0  0  0  0
   -1.7831   -2.9581   -1.7038 C   0  0  0  0  0  0  0  0  0  0  0  0
   -3.1564   -2.9034   -1.8498 F   0  0  0  0  0  0  0  0  0  0  0  0
   -1.2234   -3.4663   -2.8629 F   0  0  0  0  0  0  0  0  0  0  0  0
   -1.4695   -3.7960   -0.6497 F   0  0  0  0  0  0  0  0  0  0  0  0
    2.7314    1.6763   -0.5817 H   0  0  0  0  0  0  0  0  0  0  0  0
    3.5133   -1.4576    1.2240 H   0  0  0  0  0  0  0  0  0  0  0  0
    5.7207   -2.5428    1.2222 H   0  0  0  0  0  0  0  0  0  0  0  0
    7.1212    0.2610   -1.7148 H   0  0  0  0  0  0  0  0  0  0  0  0
    4.9048    1.3481   -1.7457 H   0  0  0  0  0  0  0  0  0  0  0  0
    1.0629    2.7171    0.8540 H   0  0  0  0  0  0  0  0  0  0  0  0
   -3.1891    2.5075    2.6397 H   0  0  0  0  0  0  0  0  0  0  0  0
   -5.6389    2.5316    2.9427 H   0  0  0  0  0  0  0  0  0  0  0  0
   -7.1103    1.3965    1.3024 H   0  0  0  0  0  0  0  0  0  0  0  0
   -6.1249    0.2507   -0.6620 H   0  0  0  0  0  0  0  0  0  0  0  0
   -3.6863    0.2386   -0.9984 H   0  0  0  0  0  0  0  0  0  0  0  0
   -2.2174   -1.4016    0.4769 H   0  0  0  0  0  0  0  0  0  0  0  0
  1  2  2  0
  2  3  1  0
  3  4  1  0
  4  5  2  0
  5  6  1  0
  6  7  2  0
  7  8  1  0
  7  9  1  0
  9 10  2  0
  2 11  1  0
 11 12  1  0
 12 13  2  0
 13 14  1  0
 14 15  1  0
 15 16  2  0
 16 17  1  0
 17 18  2  0
 18 19  1  0
 19 20  2  0
 14 21  1  0
 21 22  1  0
 22 23  1  0
 23 24  2  0
 23 25  1  0
 25 26  1  0
 25 27  1  0
 25 28  1  0
 10  4  1  0
 21 11  2  0
 20 15  1  0
  3 29  1  0
  5 30  1  0
  6 31  1  0
  9 32  1  0
 10 33  1  0
 12 34  1  0
 16 35  1  0
 17 36  1  0
 18 37  1  0
 19 38  1  0
 20 39  1  0
 22 40  1  0
M  END
$$$$
