
     RDKit          3D

 43 45  0  0  0  0  0  0  0  0999 V2000
    0.5961    1.3979   -0.3999 O   0  0  0  0  0  0  0  0  0  0  0  0
    1.3032    0.6055   -1.0799 C   0  0  0  0  0  0  0  0  0  0  0  0
    0.6766   -0.3577   -1.9404 N   0  0  0  0  0  0  0  0  0  0  0  0
   -0.7747   -0.5016   -2.0245 C   0  0  0  0  0  0  0  0  0  0  0  0
   -1.3103   -1.0993   -0.7515 C   0  0  0  0  0  0  0  0  0  0  0  0
   -0.8602   -2.2170   -0.3795 O   0  0  0  0  0  0  0  0  0  0  0  0
   -2.3158   -0.4382    0.0431 N   0  0  0  0  0  0  0  0  0  0  0  0
   -2.9288    0.8363   -0.2993 C   0  0  0  0  0  0  0  0  0  0  0  0
   -3.9557    1.1147    0.7913 C   0  0  0  0  0  0  0  0  0  0  0  0
   -3.6174    0.1694    1.9410 C   0  0  0  0  0  0  0  0  0  0  0  0
   -2.7627   -0.9457    1.3339 C   0  0  1  0  0  0  0  0  0  0  0  0
   -3.5480   -2.2303    1.1719 C   0  0  0  0  0  0  0  0  0  0  0  0
   -3.2824   -3.1831    1.8893 O   0  0  0  0  0  0  0  0  0  0  0  0
   -4.6581   -2.3634    0.1661 C   0  0  0  0  0  0  0  0  0  0  0  0
   -6.2132   -2.5890    1.0032 Cl  0  0  0  0  0  0  0  0  0  0  0  0
    2.7786    0.6982   -1.0132 C   0  0  0  0  0  0  0  0  0  0  0  0
    3.4974    0.7401   -2.2177 C   0  0  0  0  0  0  0  0  0  0  0  0
    4.8839    0.8835   -2.2001 C   0  0  0  0  0  0  0  0  0  0  0  0
    5.5459    0.9789   -1.0200 N   0  0  0  0  0  0  0  0  0  0  0  0
    4.8972    0.9293    0.1729 C   0  0  0  0  0  0  0  0  0  0  0  0
    5.6322    1.0170    1.3607 C   0  0  0  0  0  0  0  0  0  0  0  0
    4.9845    0.9382    2.5945 C   0  0  0  0  0  0  0  0  0  0  0  0
    3.6011    0.7619    2.6489 C   0  0  0  0  0  0  0  0  0  0  0  0
    2.8536    0.6755    1.4707 C   0  0  0  0  0  0  0  0  0  0  0  0
    3.4871    0.7769    0.2133 C   0  0  0  0  0  0  0  0  0  0  0  0
    1.2724   -1.0052   -2.5043 H   0  0  0  0  0  0  0  0  0  0  0  0
   -1.2275    0.4826   -2.2582 H   0  0  0  0  0  0  0  0  0  0  0  0
   -1.0268   -1.1857   -2.8628 H   0  0  0  0  0  0  0  0  0  0  0  0
   -2.1561    1.6347   -0.3089 H   0  0  0  0  0  0  0  0  0  0  0  0
   -3.4266    0.7732   -1.2912 H   0  0  0  0  0  0  0  0  0  0  0  0
   -3.9196    2.1765    1.1187 H   0  0  0  0  0  0  0  0  0  0  0  0
   -4.9767    0.8883    0.4128 H   0  0  0  0  0  0  0  0  0  0  0  0
   -4.5394   -0.2095    2.4352 H   0  0  0  0  0  0  0  0  0  0  0  0
   -3.0174    0.7209    2.6983 H   0  0  0  0  0  0  0  0  0  0  0  0
   -1.8781   -1.1247    1.9865 H   0  0  0  0  0  0  0  0  0  0  0  0
   -4.7324   -1.4631   -0.4762 H   0  0  0  0  0  0  0  0  0  0  0  0
   -4.4630   -3.2399   -0.4866 H   0  0  0  0  0  0  0  0  0  0  0  0
    2.9852    0.6889   -3.1709 H   0  0  0  0  0  0  0  0  0  0  0  0
    5.4354    0.9272   -3.1297 H   0  0  0  0  0  0  0  0  0  0  0  0
    6.7080    1.1394    1.3292 H   0  0  0  0  0  0  0  0  0  0  0  0
    5.5573    1.0032    3.5106 H   0  0  0  0  0  0  0  0  0  0  0  0
    3.1059    0.6855    3.6084 H   0  0  0  0  0  0  0  0  0  0  0  0
    1.7893    0.5101    1.5590 H   0  0  0  0  0  0  0  0  0  0  0  0
  1  2  2  0
  2  3  1  0
  3  4  1  0
  4  5  1  0
  5  6  2  0
  5  7  1  0
  7  8  1  0
  8  9  1  0
  9 10  1  0
 10 11  1  0
 11 12  1  0
 12 13  2  0
 12 14  1  0
 14 15  1  0
  2 16  1  0
 16 17  2  0
 17 18  1  0
 18 19  2  0
 19 20  1  0
 20 21  2  0
 21 22  1  0
 22 23  2  0
 23 24  1  0
 24 25  2  0
 11  7  1  0
 25 16  1  0
 25 20  1  0
  3 26  1  0
  4 27  1  0
  4 28  1  0
  8 29  1  0
  8 30  1  0
  9 31  1  0
  9 32  1  0
 10 33  1  0
 10 34  1  0
 11 35  1  1
 14 36  1  0
 14 37  1  0
 17 38  1  0
 18 39  1  0
 21 40  1  0
 22 41  1  0
 23 42  1  0
 24 43  1  0
M  END
$$$$
