
     RDKit          3D

 60 64  0  0  0  0  0  0  0  0999 V2000
   -2.8538   -2.3920   -0.8954 N   0  0  0  0  0  0  0  0  0  0  0  0
   -3.9931   -1.5049   -0.6643 C   0  0  0  0  0  0  0  0  0  0  0  0
   -3.5917   -0.1196   -0.0448 C   0  0  2  0  0  0  0  0  0  0  0  0
   -4.8608    0.7456    0.2224 C   0  0  0  0  0  0  0  0  0  0  0  0
   -4.7231    2.0327    0.8023 C   0  0  0  0  0  0  0  0  0  0  0  0
   -5.8334    2.8416    1.0528 C   0  0  0  0  0  0  0  0  0  0  0  0
   -7.1118    2.3974    0.7286 C   0  0  0  0  0  0  0  0  0  0  0  0
   -7.2843    1.1424    0.1478 C   0  0  0  0  0  0  0  0  0  0  0  0
   -8.8972    0.5896   -0.2680 Cl  0  0  0  0  0  0  0  0  0  0  0  0
   -6.1772    0.3248   -0.1072 C   0  0  0  0  0  0  0  0  0  0  0  0
   -2.6953    0.6699   -1.0626 C   0  0  0  0  0  0  0  0  0  0  0  0
   -1.2207    0.2459   -1.0953 C   0  0  0  0  0  0  0  0  0  0  0  0
   -0.6131    0.2763    0.3226 C   0  0  2  0  0  0  0  0  0  0  0  0
    0.8491   -0.0019    0.3652 N   0  0  0  0  0  0  0  0  0  0  0  0
    1.2880   -1.1363   -0.4730 C   0  0  0  0  0  0  0  0  0  0  0  0
    2.6970   -1.5625   -0.0583 C   0  0  0  0  0  0  0  0  0  0  0  0
    3.6348   -0.3802    0.0533 C   0  0  0  0  0  0  0  0  0  0  0  0
    3.1227    0.9263    0.1801 C   0  0  0  0  0  0  0  0  0  0  0  0
    3.9732    1.9725    0.3453 N   0  0  0  0  0  0  0  0  0  0  0  0
    5.3139    1.7851    0.4443 C   0  0  0  0  0  0  0  0  0  0  0  0
    6.2270    2.9607    0.5945 C   0  0  0  0  0  0  0  0  0  0  0  0
    5.5912    3.9710    1.2938 F   0  0  0  0  0  0  0  0  0  0  0  0
    7.3694    2.5915    1.2818 F   0  0  0  0  0  0  0  0  0  0  0  0
    6.5807    3.4274   -0.6573 F   0  0  0  0  0  0  0  0  0  0  0  0
    5.8283    0.5331    0.3385 N   0  0  0  0  0  0  0  0  0  0  0  0
    5.0325   -0.5521    0.1414 C   0  0  0  0  0  0  0  0  0  0  0  0
    5.6611   -1.9205    0.0880 C   0  0  0  0  0  0  0  0  0  0  0  0
    7.0231   -2.0027   -0.5917 C   0  0  0  0  0  0  0  0  0  0  0  0
    5.7851   -2.4994   -1.3146 C   0  0  0  0  0  0  0  0  0  0  0  0
    1.6480    1.2010    0.0533 C   0  0  0  0  0  0  0  0  0  0  0  0
   -1.3666   -0.6959    1.2393 C   0  0  0  0  0  0  0  0  0  0  0  0
   -2.8630   -0.3461    1.3295 C   0  0  0  0  0  0  0  0  0  0  0  0
   -3.0518   -2.9712   -1.7434 H   0  0  0  0  0  0  0  0  0  0  0  0
   -2.7931   -3.0681   -0.0994 H   0  0  0  0  0  0  0  0  0  0  0  0
   -4.7158   -2.0239    0.0066 H   0  0  0  0  0  0  0  0  0  0  0  0
   -4.5060   -1.3292   -1.6376 H   0  0  0  0  0  0  0  0  0  0  0  0
   -3.7497    2.4267    1.0627 H   0  0  0  0  0  0  0  0  0  0  0  0
   -5.6997    3.8190    1.4983 H   0  0  0  0  0  0  0  0  0  0  0  0
   -7.9674    3.0309    0.9254 H   0  0  0  0  0  0  0  0  0  0  0  0
   -6.3795   -0.6299   -0.5659 H   0  0  0  0  0  0  0  0  0  0  0  0
   -2.6994    1.7569   -0.8389 H   0  0  0  0  0  0  0  0  0  0  0  0
   -3.1164    0.5772   -2.0876 H   0  0  0  0  0  0  0  0  0  0  0  0
   -1.1270   -0.7559   -1.5571 H   0  0  0  0  0  0  0  0  0  0  0  0
   -0.6723    0.9542   -1.7515 H   0  0  0  0  0  0  0  0  0  0  0  0
   -0.7944    1.2940    0.7418 H   0  0  0  0  0  0  0  0  0  0  0  0
    1.2937   -0.8550   -1.5509 H   0  0  0  0  0  0  0  0  0  0  0  0
    0.6165   -2.0111   -0.3486 H   0  0  0  0  0  0  0  0  0  0  0  0
    3.0741   -2.2904   -0.8068 H   0  0  0  0  0  0  0  0  0  0  0  0
    2.6481   -2.0695    0.9295 H   0  0  0  0  0  0  0  0  0  0  0  0
    5.4735   -2.6558    0.8990 H   0  0  0  0  0  0  0  0  0  0  0  0
    7.6778   -2.8189   -0.2203 H   0  0  0  0  0  0  0  0  0  0  0  0
    7.4325   -1.0631   -1.0207 H   0  0  0  0  0  0  0  0  0  0  0  0
    5.4517   -1.8395   -2.1448 H   0  0  0  0  0  0  0  0  0  0  0  0
    5.7021   -3.6057   -1.3627 H   0  0  0  0  0  0  0  0  0  0  0  0
    1.4425    1.5573   -0.9793 H   0  0  0  0  0  0  0  0  0  0  0  0
    1.3878    2.0168    0.7630 H   0  0  0  0  0  0  0  0  0  0  0  0
   -0.9301   -0.6343    2.2604 H   0  0  0  0  0  0  0  0  0  0  0  0
   -1.2300   -1.7416    0.9108 H   0  0  0  0  0  0  0  0  0  0  0  0
   -3.3820   -1.1468    1.9006 H   0  0  0  0  0  0  0  0  0  0  0  0
   -2.9258    0.5561    1.9708 H   0  0  0  0  0  0  0  0  0  0  0  0
  1  2  1  0
  3  2  1  6
  3  4  1  0
  4  5  2  0
  5  6  1  0
  6  7  2  0
  7  8  1  0
  8  9  1  0
  8 10  2  0
  3 11  1  0
 11 12  1  0
 12 13  1  0
 13 14  1  0
 14 15  1  0
 15 16  1  0
 16 17  1  0
 17 18  2  0
 18 19  1  0
 19 20  2  0
 20 21  1  0
 21 22  1  0
 21 23  1  0
 21 24  1  0
 20 25  1  0
 25 26  2  0
 26 27  1  0
 27 28  1  0
 28 29  1  0
 18 30  1  0
 13 31  1  0
 31 32  1  0
 32  3  1  0
 10  4  1  0
 30 14  1  0
 26 17  1  0
 29 27  1  0
  1 33  1  0
  1 34  1  0
  2 35  1  0
  2 36  1  0
  5 37  1  0
  6 38  1  0
  7 39  1  0
 10 40  1  0
 11 41  1  0
 11 42  1  0
 12 43  1  0
 12 44  1  0
 13 45  1  1
 15 46  1  0
 15 47  1  0
 16 48  1  0
 16 49  1  0
 27 50  1  0
 28 51  1  0
 28 52  1  0
 29 53  1  0
 29 54  1  0
 30 55  1  0
 30 56  1  0
 31 57  1  0
 31 58  1  0
 32 59  1  0
 32 60  1  0
M  END
$$$$
