
     RDKit          3D

 62 65  0  0  0  0  0  0  0  0999 V2000
    7.5534   -2.3226   -2.8596 C   0  0  0  0  0  0  0  0  0  0  0  0
    6.7622   -1.3604   -2.1726 O   0  0  0  0  0  0  0  0  0  0  0  0
    5.4097   -1.5657   -1.8782 C   0  0  0  0  0  0  0  0  0  0  0  0
    4.8450   -2.6400   -2.2254 O   0  0  0  0  0  0  0  0  0  0  0  0
    4.6444   -0.5217   -1.1599 C   0  0  0  0  0  0  0  0  0  0  0  0
    5.2698    0.6725   -0.7734 C   0  0  0  0  0  0  0  0  0  0  0  0
    4.5607    1.6672   -0.0950 C   0  0  0  0  0  0  0  0  0  0  0  0
    3.1929    1.4991    0.2223 C   0  0  0  0  0  0  0  0  0  0  0  0
    2.5670    0.2833   -0.1748 C   0  0  0  0  0  0  0  0  0  0  0  0
    3.2874   -0.7097   -0.8560 C   0  0  0  0  0  0  0  0  0  0  0  0
    1.2220    0.1197    0.1375 C   0  0  0  0  0  0  0  0  0  0  0  0
    0.4391   -0.9404   -0.1385 N   0  0  0  0  0  0  0  0  0  0  0  0
   -0.7613   -0.5758    0.3754 C   0  0  0  0  0  0  0  0  0  0  0  0
   -1.9072   -1.4411    0.3265 N   0  0  0  0  0  0  0  0  0  0  0  0
   -3.1904   -0.9509   -0.1943 C   0  0  0  0  0  0  0  0  0  0  0  0
   -3.8477   -2.0212   -1.0690 C   0  0  0  0  0  0  0  0  0  0  0  0
   -4.0267   -3.3643   -0.3312 C   0  0  0  0  0  0  0  0  0  0  0  0
   -3.0925   -3.5399    0.8881 C   0  0  1  0  0  0  0  0  0  0  0  0
   -2.9037   -4.9619    1.1781 N   0  0  0  0  0  0  0  0  0  0  0  0
   -1.7325   -2.8629    0.6494 C   0  0  0  0  0  0  0  0  0  0  0  0
   -0.7504    0.6480    0.9713 N   0  0  0  0  0  0  0  0  0  0  0  0
   -1.8340    1.2714    1.7438 C   0  0  0  0  0  0  0  0  0  0  0  0
   -2.7320    2.1484    0.8911 C   0  0  0  0  0  0  0  0  0  0  0  0
   -2.2411    2.7763   -0.2729 C   0  0  0  0  0  0  0  0  0  0  0  0
   -3.0683    3.5971   -1.0427 C   0  0  0  0  0  0  0  0  0  0  0  0
   -4.3893    3.8196   -0.6570 C   0  0  0  0  0  0  0  0  0  0  0  0
   -4.8849    3.2297    0.5058 C   0  0  0  0  0  0  0  0  0  0  0  0
   -4.0662    2.4051    1.2871 C   0  0  0  0  0  0  0  0  0  0  0  0
   -4.7508    1.7234    2.7601 Cl  0  0  0  0  0  0  0  0  0  0  0  0
    0.5204    1.0751    0.8013 C   0  0  0  0  0  0  0  0  0  0  0  0
    1.1262    2.2766    1.1836 C   0  0  0  0  0  0  0  0  0  0  0  0
    0.4491    3.1663    1.7670 O   0  0  0  0  0  0  0  0  0  0  0  0
    2.4637    2.4761    0.8953 N   0  0  0  0  0  0  0  0  0  0  0  0
    3.1129    3.7386    1.3021 C   0  0  0  0  0  0  0  0  0  0  0  0
    0.6878    0.0000    0.0000 Cl  0  0  0  0  0  0  0  0  0  0  0  0
    8.5854   -1.9319   -2.9729 H   0  0  0  0  0  0  0  0  0  0  0  0
    7.5886   -3.2694   -2.2801 H   0  0  0  0  0  0  0  0  0  0  0  0
    7.1284   -2.5145   -3.8675 H   0  0  0  0  0  0  0  0  0  0  0  0
    6.3158    0.8431   -0.9960 H   0  0  0  0  0  0  0  0  0  0  0  0
    5.1016    2.5635    0.1726 H   0  0  0  0  0  0  0  0  0  0  0  0
    2.7910   -1.6275   -1.1487 H   0  0  0  0  0  0  0  0  0  0  0  0
   -3.8645   -0.6939    0.6503 H   0  0  0  0  0  0  0  0  0  0  0  0
   -3.0342   -0.0436   -0.8166 H   0  0  0  0  0  0  0  0  0  0  0  0
   -3.2065   -2.1814   -1.9639 H   0  0  0  0  0  0  0  0  0  0  0  0
   -4.8341   -1.6544   -1.4267 H   0  0  0  0  0  0  0  0  0  0  0  0
   -3.8546   -4.1879   -1.0593 H   0  0  0  0  0  0  0  0  0  0  0  0
   -5.0793   -3.4521    0.0167 H   0  0  0  0  0  0  0  0  0  0  0  0
   -3.5685   -3.0510    1.7699 H   0  0  0  0  0  0  0  0  0  0  0  0
   -2.3445   -5.0476    2.0582 H   0  0  0  0  0  0  0  0  0  0  0  0
   -3.8392   -5.3795    1.3905 H   0  0  0  0  0  0  0  0  0  0  0  0
   -1.1173   -2.9568    1.5714 H   0  0  0  0  0  0  0  0  0  0  0  0
   -1.1965   -3.3674   -0.1842 H   0  0  0  0  0  0  0  0  0  0  0  0
   -1.4235    1.8692    2.5818 H   0  0  0  0  0  0  0  0  0  0  0  0
   -2.4254    0.4638    2.2226 H   0  0  0  0  0  0  0  0  0  0  0  0
   -1.2216    2.6328   -0.6003 H   0  0  0  0  0  0  0  0  0  0  0  0
   -2.6823    4.0641   -1.9397 H   0  0  0  0  0  0  0  0  0  0  0  0
   -5.0276    4.4571   -1.2551 H   0  0  0  0  0  0  0  0  0  0  0  0
   -5.9083    3.4196    0.8040 H   0  0  0  0  0  0  0  0  0  0  0  0
    3.4834    4.2787    0.4049 H   0  0  0  0  0  0  0  0  0  0  0  0
    2.4285    4.4279    1.8381 H   0  0  0  0  0  0  0  0  0  0  0  0
    3.9582    3.5241    1.9901 H   0  0  0  0  0  0  0  0  0  0  0  0
   -0.6878    0.0000    0.0000 H   0  0  0  0  0  0  0  0  0  0  0  0
  1  2  1  0
  2  3  1  0
  3  4  2  0
  3  5  1  0
  5  6  2  0
  6  7  1  0
  7  8  2  0
  8  9  1  0
  9 10  2  0
  9 11  1  0
 11 12  1  0
 12 13  2  0
 13 14  1  0
 14 15  1  0
 15 16  1  0
 16 17  1  0
 17 18  1  0
 18 19  1  0
 18 20  1  0
 13 21  1  0
 21 22  1  0
 22 23  1  0
 23 24  2  0
 24 25  1  0
 25 26  2  0
 26 27  1  0
 27 28  2  0
 28 29  1  0
 21 30  1  0
 30 31  1  0
 31 32  2  0
 31 33  1  0
 33 34  1  0
 10  5  1  0
 30 11  2  0
 33  8  1  0
 20 14  1  0
 28 23  1  0
  1 36  1  0
  1 37  1  0
  1 38  1  0
  6 39  1  0
  7 40  1  0
 10 41  1  0
 15 42  1  0
 15 43  1  0
 16 44  1  0
 16 45  1  0
 17 46  1  0
 17 47  1  0
 18 48  1  1
 19 49  1  0
 19 50  1  0
 20 51  1  0
 20 52  1  0
 22 53  1  0
 22 54  1  0
 24 55  1  0
 25 56  1  0
 26 57  1  0
 27 58  1  0
 34 59  1  0
 34 60  1  0
 34 61  1  0
 35 62  1  0
M  END
$$$$
