
     RDKit          3D

 60 61  0  0  0  0  0  0  0  0999 V2000
    0.6878    0.0000    0.0000 Cl  0  0  0  0  0  0  0  0  0  0  0  0
   -5.0660   -2.6066    1.7598 N   0  0  0  0  0  0  0  0  0  0  0  0
   -3.9724   -1.6502    1.9556 C   0  0  1  0  0  0  0  0  0  0  0  0
   -2.7637   -2.0058    1.0567 C   0  0  0  0  0  0  0  0  0  0  0  0
   -1.5390   -1.1933    1.3982 C   0  0  0  0  0  0  0  0  0  0  0  0
   -1.1308   -1.1755    2.5914 O   0  0  0  0  0  0  0  0  0  0  0  0
   -0.8365   -0.4287    0.4001 N   0  0  0  0  0  0  0  0  0  0  0  0
   -0.6109   -0.9877   -0.9465 C   0  0  0  0  0  0  0  0  0  0  0  0
    0.8844   -1.1165   -1.3104 C   0  0  0  0  0  0  0  0  0  0  0  0
    1.8563   -0.3281   -0.4198 C   0  0  0  0  0  0  0  0  0  0  0  0
    1.7228    1.1330   -0.5865 N   0  0  0  0  0  0  0  0  0  0  0  0
    2.9060    1.9495    0.4115 S   0  0  0  0  0  0  0  0  0  0  0  0
    2.6357    1.6784    1.8659 O   0  0  0  0  0  0  0  0  0  0  0  0
    2.8367    3.4336    0.1799 O   0  0  0  0  0  0  0  0  0  0  0  0
    4.5279    1.4009   -0.0062 C   0  0  0  0  0  0  0  0  0  0  0  0
    5.1090    1.8076   -1.2128 C   0  0  0  0  0  0  0  0  0  0  0  0
    6.3867    1.3637   -1.5655 C   0  0  0  0  0  0  0  0  0  0  0  0
    7.1007    0.5009   -0.7158 C   0  0  0  0  0  0  0  0  0  0  0  0
    8.4524    0.0317   -1.0921 C   0  0  0  0  0  0  0  0  0  0  0  0
    9.0942   -0.7431   -0.3320 O   0  0  0  0  0  0  0  0  0  0  0  0
    9.0294    0.4422   -2.2912 O   0  0  0  0  0  0  0  0  0  0  0  0
    6.5087    0.0906    0.4925 C   0  0  0  0  0  0  0  0  0  0  0  0
    5.2309    0.5364    0.8429 C   0  0  0  0  0  0  0  0  0  0  0  0
    0.3623    1.6712   -0.3443 C   0  0  0  0  0  0  0  0  0  0  0  0
   -0.4289    0.9425    0.7623 C   0  0  0  0  0  0  0  0  0  0  0  0
   -4.4789   -0.2011    1.7564 C   0  0  0  0  0  0  0  0  0  0  0  0
   -5.0595    0.0607    0.3838 C   0  0  0  0  0  0  0  0  0  0  0  0
   -4.2417    0.5612   -0.6441 C   0  0  0  0  0  0  0  0  0  0  0  0
   -4.7646    0.7873   -1.9203 C   0  0  0  0  0  0  0  0  0  0  0  0
   -3.9620    1.2639   -2.9041 F   0  0  0  0  0  0  0  0  0  0  0  0
   -6.1119    0.5231   -2.1811 C   0  0  0  0  0  0  0  0  0  0  0  0
   -6.6211    0.7424   -3.4186 F   0  0  0  0  0  0  0  0  0  0  0  0
   -6.9370    0.0353   -1.1644 C   0  0  0  0  0  0  0  0  0  0  0  0
   -6.4183   -0.1947    0.1141 C   0  0  0  0  0  0  0  0  0  0  0  0
   -7.2413   -0.6636    1.0863 F   0  0  0  0  0  0  0  0  0  0  0  0
   -0.6878    0.0000    0.0000 H   0  0  0  0  0  0  0  0  0  0  0  0
   -5.2436   -2.7322    0.7365 H   0  0  0  0  0  0  0  0  0  0  0  0
   -4.7648   -3.5370    2.1313 H   0  0  0  0  0  0  0  0  0  0  0  0
   -3.6464   -1.7319    3.0173 H   0  0  0  0  0  0  0  0  0  0  0  0
   -2.5078   -3.0784    1.1930 H   0  0  0  0  0  0  0  0  0  0  0  0
   -3.0506   -1.8678   -0.0053 H   0  0  0  0  0  0  0  0  0  0  0  0
   -1.0571   -2.0008   -1.0348 H   0  0  0  0  0  0  0  0  0  0  0  0
   -1.1378   -0.3623   -1.6980 H   0  0  0  0  0  0  0  0  0  0  0  0
    1.0315   -0.8114   -2.3693 H   0  0  0  0  0  0  0  0  0  0  0  0
    1.1700   -2.1897   -1.2442 H   0  0  0  0  0  0  0  0  0  0  0  0
    2.8802   -0.6300   -0.7283 H   0  0  0  0  0  0  0  0  0  0  0  0
    1.7475   -0.6318    0.6448 H   0  0  0  0  0  0  0  0  0  0  0  0
    4.5705    2.4662   -1.8827 H   0  0  0  0  0  0  0  0  0  0  0  0
    6.8130    1.6946   -2.5042 H   0  0  0  0  0  0  0  0  0  0  0  0
    9.9543    0.1268   -2.5584 H   0  0  0  0  0  0  0  0  0  0  0  0
    7.0313   -0.5769    1.1663 H   0  0  0  0  0  0  0  0  0  0  0  0
    4.7908    0.2008    1.7729 H   0  0  0  0  0  0  0  0  0  0  0  0
   -0.2073    1.6555   -1.2956 H   0  0  0  0  0  0  0  0  0  0  0  0
    0.4102    2.7492   -0.0788 H   0  0  0  0  0  0  0  0  0  0  0  0
   -1.3414    1.5362    0.9852 H   0  0  0  0  0  0  0  0  0  0  0  0
    0.1780    0.9211    1.6911 H   0  0  0  0  0  0  0  0  0  0  0  0
   -3.6501    0.5128    1.9549 H   0  0  0  0  0  0  0  0  0  0  0  0
   -5.2491    0.0154    2.5284 H   0  0  0  0  0  0  0  0  0  0  0  0
   -3.1990    0.7755   -0.4585 H   0  0  0  0  0  0  0  0  0  0  0  0
   -7.9814   -0.1650   -1.3671 H   0  0  0  0  0  0  0  0  0  0  0  0
  2  3  1  0
  3  4  1  0
  4  5  1  0
  5  6  2  0
  5  7  1  0
  7  8  1  0
  8  9  1  0
  9 10  1  0
 10 11  1  0
 11 12  1  0
 12 13  2  0
 12 14  2  0
 12 15  1  0
 15 16  2  0
 16 17  1  0
 17 18  2  0
 18 19  1  0
 19 20  2  0
 19 21  1  0
 18 22  1  0
 22 23  2  0
 11 24  1  0
 24 25  1  0
  3 26  1  0
 26 27  1  0
 27 28  2  0
 28 29  1  0
 29 30  1  0
 29 31  2  0
 31 32  1  0
 31 33  1  0
 33 34  2  0
 34 35  1  0
 25  7  1  0
 34 27  1  0
 23 15  1  0
  1 36  1  0
  2 37  1  0
  2 38  1  0
  3 39  1  1
  4 40  1  0
  4 41  1  0
  8 42  1  0
  8 43  1  0
  9 44  1  0
  9 45  1  0
 10 46  1  0
 10 47  1  0
 16 48  1  0
 17 49  1  0
 21 50  1  0
 22 51  1  0
 23 52  1  0
 24 53  1  0
 24 54  1  0
 25 55  1  0
 25 56  1  0
 26 57  1  0
 26 58  1  0
 28 59  1  0
 33 60  1  0
M  END
$$$$
