
     RDKit          3D

 39 41  0  0  0  0  0  0  0  0999 V2000
   -2.5828   -3.5988    1.8688 N   0  0  0  0  0  0  0  0  0  0  0  0
   -2.5122   -2.5539    1.3765 C   0  0  0  0  0  0  0  0  0  0  0  0
   -2.4216   -1.2244    0.7495 C   0  0  2  0  0  0  0  0  0  0  0  0
   -3.5963   -0.3387    1.1766 C   0  0  0  0  0  0  0  0  0  0  0  0
   -4.1017    0.3252   -0.1023 C   0  0  2  0  0  0  0  0  0  0  0  0
   -5.4836    0.4162   -0.1063 F   0  0  0  0  0  0  0  0  0  0  0  0
   -3.6084   -0.5466   -1.2489 C   0  0  0  0  0  0  0  0  0  0  0  0
   -2.5155   -1.3320   -0.7011 N   0  0  0  0  0  0  0  0  0  0  0  0
   -1.5530   -1.9918   -1.5468 C   0  0  0  0  0  0  0  0  0  0  0  0
   -1.8317   -2.2010   -2.7586 O   0  0  0  0  0  0  0  0  0  0  0  0
   -0.1856   -2.3675   -1.0449 C   0  0  0  0  0  0  0  0  0  0  0  0
    0.6625   -1.1823   -0.9283 N   0  0  0  0  0  0  0  0  0  0  0  0
    2.0381   -1.2812   -0.5333 C   0  0  0  0  0  0  0  0  0  0  0  0
    2.5623   -2.4130   -0.3466 O   0  0  0  0  0  0  0  0  0  0  0  0
    2.8727   -0.0665   -0.4099 C   0  0  0  0  0  0  0  0  0  0  0  0
    4.0810   -0.0185   -1.1205 C   0  0  0  0  0  0  0  0  0  0  0  0
    4.8633    1.1354   -1.0904 C   0  0  0  0  0  0  0  0  0  0  0  0
    4.4649    2.2126   -0.3679 N   0  0  0  0  0  0  0  0  0  0  0  0
    3.3146    2.2053    0.3558 C   0  0  0  0  0  0  0  0  0  0  0  0
    2.9596    3.3366    1.0996 C   0  0  0  0  0  0  0  0  0  0  0  0
    1.7994    3.3302    1.8762 C   0  0  0  0  0  0  0  0  0  0  0  0
    0.9955    2.1900    1.9248 C   0  0  0  0  0  0  0  0  0  0  0  0
    1.3379    1.0545    1.1853 C   0  0  0  0  0  0  0  0  0  0  0  0
    2.4878    1.0532    0.3691 C   0  0  0  0  0  0  0  0  0  0  0  0
   -1.4623   -0.7427    1.0296 H   0  0  0  0  0  0  0  0  0  0  0  0
   -4.4205   -0.9379    1.6271 H   0  0  0  0  0  0  0  0  0  0  0  0
   -3.2705    0.4249    1.9164 H   0  0  0  0  0  0  0  0  0  0  0  0
   -3.6635    1.3439   -0.1908 H   0  0  0  0  0  0  0  0  0  0  0  0
   -4.4092   -1.2287   -1.6081 H   0  0  0  0  0  0  0  0  0  0  0  0
   -3.2512    0.0905   -2.0876 H   0  0  0  0  0  0  0  0  0  0  0  0
    0.2824   -3.0838   -1.7549 H   0  0  0  0  0  0  0  0  0  0  0  0
   -0.2582   -2.8717   -0.0604 H   0  0  0  0  0  0  0  0  0  0  0  0
    0.2766   -0.2407   -1.1708 H   0  0  0  0  0  0  0  0  0  0  0  0
    4.4040   -0.8617   -1.7192 H   0  0  0  0  0  0  0  0  0  0  0  0
    5.7875    1.1776   -1.6512 H   0  0  0  0  0  0  0  0  0  0  0  0
    3.5867    4.2196    1.0833 H   0  0  0  0  0  0  0  0  0  0  0  0
    1.5301    4.2059    2.4526 H   0  0  0  0  0  0  0  0  0  0  0  0
    0.1077    2.1825    2.5441 H   0  0  0  0  0  0  0  0  0  0  0  0
    0.7128    0.1792    1.2778 H   0  0  0  0  0  0  0  0  0  0  0  0
  1  2  3  0
  2  3  1  0
  3  4  1  0
  4  5  1  0
  5  6  1  0
  5  7  1  0
  7  8  1  0
  8  9  1  0
  9 10  2  0
  9 11  1  0
 11 12  1  0
 12 13  1  0
 13 14  2  0
 13 15  1  0
 15 16  2  0
 16 17  1  0
 17 18  2  0
 18 19  1  0
 19 20  2  0
 20 21  1  0
 21 22  2  0
 22 23  1  0
 23 24  2  0
  8  3  1  0
 24 15  1  0
 24 19  1  0
  3 25  1  6
  4 26  1  0
  4 27  1  0
  5 28  1  6
  7 29  1  0
  7 30  1  0
 11 31  1  0
 11 32  1  0
 12 33  1  0
 16 34  1  0
 17 35  1  0
 20 36  1  0
 21 37  1  0
 22 38  1  0
 23 39  1  0
M  END
$$$$
