
     RDKit          3D

 77 80  0  0  0  0  0  0  0  0999 V2000
   10.7657   -1.7515   -0.9938 C   0  0  0  0  0  0  0  0  0  0  0  0
   10.7339   -0.0699   -0.4098 S   0  0  0  0  0  0  0  0  0  0  0  0
   11.6478    0.7522   -1.2739 O   0  0  0  0  0  0  0  0  0  0  0  0
   11.2196    0.0034    1.0106 O   0  0  0  0  0  0  0  0  0  0  0  0
    9.1258    0.5746   -0.5240 N   0  0  0  0  0  0  0  0  0  0  0  0
    7.9893    0.0691    0.2010 C   0  0  0  0  0  0  0  0  0  0  0  0
    8.1204   -0.8856    1.2265 C   0  0  0  0  0  0  0  0  0  0  0  0
    6.9914   -1.3571    1.9002 C   0  0  0  0  0  0  0  0  0  0  0  0
    5.7230   -0.8757    1.5722 C   0  0  0  0  0  0  0  0  0  0  0  0
    5.5736    0.0993    0.5718 C   0  0  0  0  0  0  0  0  0  0  0  0
    4.2775    0.5962    0.1971 N   0  0  0  0  0  0  0  0  0  0  0  0
    3.1873    0.7751    1.1143 C   0  0  0  0  0  0  0  0  0  0  0  0
    3.3810    0.7374    2.3596 O   0  0  0  0  0  0  0  0  0  0  0  0
    1.8114    1.0440    0.5898 C   0  0  0  0  0  0  0  0  0  0  0  0
    1.3493   -0.1253   -0.1851 N   0  0  0  0  0  0  0  0  0  0  0  0
    0.6414   -1.1338    0.6337 C   0  0  0  0  0  0  0  0  0  0  0  0
   -0.8369   -0.7813    0.8357 C   0  0  0  0  0  0  0  0  0  0  0  0
   -1.4560   -0.5508   -0.4718 N   0  0  0  0  0  0  0  0  0  0  0  0
   -2.1661   -1.6433   -1.0960 C   0  0  0  0  0  0  0  0  0  0  0  0
   -1.8224   -2.8322   -0.8509 O   0  0  0  0  0  0  0  0  0  0  0  0
   -3.3618   -1.4112   -1.9827 C   0  0  0  0  0  0  0  0  0  0  0  0
   -4.5828   -0.9084   -1.1856 C   0  0  1  0  0  0  0  0  0  0  0  0
   -5.6753   -0.5488   -2.0945 N   0  0  0  0  0  0  0  0  0  0  0  0
   -5.0787   -1.9470   -0.1592 C   0  0  0  0  0  0  0  0  0  0  0  0
   -6.1339   -1.3514    0.7365 C   0  0  0  0  0  0  0  0  0  0  0  0
   -7.4970   -1.5180    0.4415 C   0  0  0  0  0  0  0  0  0  0  0  0
   -8.4697   -0.9204    1.2488 C   0  0  0  0  0  0  0  0  0  0  0  0
   -8.0896   -0.1466    2.3495 C   0  0  0  0  0  0  0  0  0  0  0  0
   -9.0365    0.4344    3.1269 F   0  0  0  0  0  0  0  0  0  0  0  0
   -6.7340    0.0318    2.6437 C   0  0  0  0  0  0  0  0  0  0  0  0
   -6.3625    0.7900    3.7048 F   0  0  0  0  0  0  0  0  0  0  0  0
   -5.7587   -0.5656    1.8392 C   0  0  0  0  0  0  0  0  0  0  0  0
   -0.8467    0.4977   -1.3058 C   0  0  0  0  0  0  0  0  0  0  0  0
   -1.1105    1.9177   -0.7526 C   0  0  0  0  0  0  0  0  0  0  0  0
   -2.5798    2.2402   -0.6714 C   0  0  0  0  0  0  0  0  0  0  0  0
   -3.3035    2.5455   -1.8363 C   0  0  0  0  0  0  0  0  0  0  0  0
   -4.6641    2.8591   -1.7582 C   0  0  0  0  0  0  0  0  0  0  0  0
   -5.3126    2.8654   -0.5202 C   0  0  0  0  0  0  0  0  0  0  0  0
   -4.6001    2.5646    0.6434 C   0  0  0  0  0  0  0  0  0  0  0  0
   -3.2393    2.2508    0.5708 C   0  0  0  0  0  0  0  0  0  0  0  0
    0.6645    0.2013   -1.4599 C   0  0  0  0  0  0  0  0  0  0  0  0
    6.7088    0.5511   -0.1178 C   0  0  0  0  0  0  0  0  0  0  0  0
   10.3908   -1.7866   -2.0373 H   0  0  0  0  0  0  0  0  0  0  0  0
   11.8069   -2.1339   -0.9648 H   0  0  0  0  0  0  0  0  0  0  0  0
   10.1247   -2.3911   -0.3546 H   0  0  0  0  0  0  0  0  0  0  0  0
    8.9797    1.3431   -1.2164 H   0  0  0  0  0  0  0  0  0  0  0  0
    9.0845   -1.2752    1.5147 H   0  0  0  0  0  0  0  0  0  0  0  0
    7.0998   -2.1042    2.6760 H   0  0  0  0  0  0  0  0  0  0  0  0
    4.8615   -1.2838    2.0834 H   0  0  0  0  0  0  0  0  0  0  0  0
    4.1379    0.9124   -0.7896 H   0  0  0  0  0  0  0  0  0  0  0  0
    1.8648    1.9593   -0.0389 H   0  0  0  0  0  0  0  0  0  0  0  0
    1.1293    1.2668    1.4390 H   0  0  0  0  0  0  0  0  0  0  0  0
    0.7117   -2.1189    0.1240 H   0  0  0  0  0  0  0  0  0  0  0  0
    1.1345   -1.2518    1.6238 H   0  0  0  0  0  0  0  0  0  0  0  0
   -1.3511   -1.6040    1.3795 H   0  0  0  0  0  0  0  0  0  0  0  0
   -0.9348    0.1229    1.4695 H   0  0  0  0  0  0  0  0  0  0  0  0
   -3.6262   -2.3578   -2.5038 H   0  0  0  0  0  0  0  0  0  0  0  0
   -3.1071   -0.6763   -2.7724 H   0  0  0  0  0  0  0  0  0  0  0  0
   -4.2775    0.0012   -0.6329 H   0  0  0  0  0  0  0  0  0  0  0  0
   -5.3517    0.2177   -2.7279 H   0  0  0  0  0  0  0  0  0  0  0  0
   -5.9094   -1.3719   -2.6966 H   0  0  0  0  0  0  0  0  0  0  0  0
   -4.2358   -2.2948    0.4760 H   0  0  0  0  0  0  0  0  0  0  0  0
   -5.4760   -2.8424   -0.6862 H   0  0  0  0  0  0  0  0  0  0  0  0
   -7.8053   -2.1041   -0.4154 H   0  0  0  0  0  0  0  0  0  0  0  0
   -9.5186   -1.0536    1.0172 H   0  0  0  0  0  0  0  0  0  0  0  0
   -4.7112   -0.4095    2.0675 H   0  0  0  0  0  0  0  0  0  0  0  0
   -1.2746    0.4742   -2.3298 H   0  0  0  0  0  0  0  0  0  0  0  0
   -0.6515    2.0545    0.2436 H   0  0  0  0  0  0  0  0  0  0  0  0
   -0.6239    2.6617   -1.4206 H   0  0  0  0  0  0  0  0  0  0  0  0
   -2.8136    2.5413   -2.8020 H   0  0  0  0  0  0  0  0  0  0  0  0
   -5.2175    3.0913   -2.6589 H   0  0  0  0  0  0  0  0  0  0  0  0
   -6.3671    3.1020   -0.4626 H   0  0  0  0  0  0  0  0  0  0  0  0
   -5.1033    2.5695    1.6014 H   0  0  0  0  0  0  0  0  0  0  0  0
   -2.7030    2.0149    1.4813 H   0  0  0  0  0  0  0  0  0  0  0  0
    1.1753    1.0383   -1.9848 H   0  0  0  0  0  0  0  0  0  0  0  0
    0.7702   -0.6767   -2.1340 H   0  0  0  0  0  0  0  0  0  0  0  0
    6.5941    1.2879   -0.9037 H   0  0  0  0  0  0  0  0  0  0  0  0
  1  2  1  0
  2  3  2  0
  2  4  2  0
  2  5  1  0
  5  6  1  0
  6  7  2  0
  7  8  1  0
  8  9  2  0
  9 10  1  0
 10 11  1  0
 11 12  1  0
 12 13  2  0
 12 14  1  0
 14 15  1  0
 15 16  1  0
 16 17  1  0
 17 18  1  0
 18 19  1  0
 19 20  2  0
 19 21  1  0
 21 22  1  0
 22 23  1  0
 22 24  1  0
 24 25  1  0
 25 26  2  0
 26 27  1  0
 27 28  2  0
 28 29  1  0
 28 30  1  0
 30 31  1  0
 30 32  2  0
 18 33  1  0
 33 34  1  0
 34 35  1  0
 35 36  2  0
 36 37  1  0
 37 38  2  0
 38 39  1  0
 39 40  2  0
 33 41  1  0
 10 42  2  0
 42  6  1  0
 41 15  1  0
 32 25  1  0
 40 35  1  0
  1 43  1  0
  1 44  1  0
  1 45  1  0
  5 46  1  0
  7 47  1  0
  8 48  1  0
  9 49  1  0
 11 50  1  0
 14 51  1  0
 14 52  1  0
 16 53  1  0
 16 54  1  0
 17 55  1  0
 17 56  1  0
 21 57  1  0
 21 58  1  0
 22 59  1  1
 23 60  1  0
 23 61  1  0
 24 62  1  0
 24 63  1  0
 26 64  1  0
 27 65  1  0
 32 66  1  0
 33 67  1  0
 34 68  1  0
 34 69  1  0
 36 70  1  0
 37 71  1  0
 38 72  1  0
 39 73  1  0
 40 74  1  0
 41 75  1  0
 41 76  1  0
 42 77  1  0
M  END
$$$$
