
     RDKit          3D

 40 42  0  0  0  0  0  0  0  0999 V2000
    0.3545    0.8413    1.8019 N   0  0  0  0  0  0  0  0  0  0  0  0
    1.4093    0.9196    1.3315 C   0  0  0  0  0  0  0  0  0  0  0  0
    2.7313    1.0273    0.7610 C   0  0  0  0  0  0  0  0  0  0  0  0
    3.6531    1.8037    1.4791 C   0  0  0  0  0  0  0  0  0  0  0  0
    4.9861    1.8767    1.0852 C   0  0  0  0  0  0  0  0  0  0  0  0
    5.4276    1.1551   -0.0179 C   0  0  0  0  0  0  0  0  0  0  0  0
    4.5335    0.3760   -0.7571 C   0  0  0  0  0  0  0  0  0  0  0  0
    5.0114   -0.3433   -1.8057 N   0  0  0  0  0  0  0  0  0  0  0  0
    4.2114   -1.1259   -2.5667 C   0  0  0  0  0  0  0  0  0  0  0  0
    2.8476   -1.1887   -2.3076 C   0  0  0  0  0  0  0  0  0  0  0  0
    2.2929   -0.4487   -1.2527 C   0  0  0  0  0  0  0  0  0  0  0  0
    0.8198   -0.4499   -1.1548 C   0  0  0  0  0  0  0  0  0  0  0  0
    0.1917    0.6413   -1.2231 O   0  0  0  0  0  0  0  0  0  0  0  0
    0.1043   -1.6906   -1.0640 N   0  0  0  0  0  0  0  0  0  0  0  0
   -1.3518   -1.7476   -0.9576 C   0  0  0  0  0  0  0  0  0  0  0  0
   -1.7867   -1.3961    0.4398 C   0  0  0  0  0  0  0  0  0  0  0  0
   -1.1705   -1.9179    1.4089 O   0  0  0  0  0  0  0  0  0  0  0  0
   -2.9132   -0.5345    0.7013 N   0  0  0  0  0  0  0  0  0  0  0  0
   -3.3837   -0.2716    2.0531 C   0  0  0  0  0  0  0  0  0  0  0  0
   -4.5885    0.6506    1.8995 C   0  0  0  0  0  0  0  0  0  0  0  0
   -4.2129    1.9632    2.1352 F   0  0  0  0  0  0  0  0  0  0  0  0
   -5.6023    0.2968    2.7741 F   0  0  0  0  0  0  0  0  0  0  0  0
   -5.0369    0.4938    0.4482 C   0  0  0  0  0  0  0  0  0  0  0  0
   -3.7943    0.0312   -0.3130 C   0  0  1  0  0  0  0  0  0  0  0  0
   -3.1355    1.1698   -0.9748 C   0  0  0  0  0  0  0  0  0  0  0  0
   -2.6194    2.0656   -1.4947 N   0  0  0  0  0  0  0  0  0  0  0  0
    3.1513    0.3268   -0.4124 C   0  0  0  0  0  0  0  0  0  0  0  0
    3.3428    2.3428    2.3671 H   0  0  0  0  0  0  0  0  0  0  0  0
    5.6856    2.4758    1.6539 H   0  0  0  0  0  0  0  0  0  0  0  0
    6.4737    1.1971   -0.2964 H   0  0  0  0  0  0  0  0  0  0  0  0
    4.6333   -1.6839   -3.3919 H   0  0  0  0  0  0  0  0  0  0  0  0
    2.2179   -1.7845   -2.9581 H   0  0  0  0  0  0  0  0  0  0  0  0
    0.6394   -2.5883   -1.0501 H   0  0  0  0  0  0  0  0  0  0  0  0
   -1.6940   -2.7815   -1.1760 H   0  0  0  0  0  0  0  0  0  0  0  0
   -1.7999   -1.0830   -1.7224 H   0  0  0  0  0  0  0  0  0  0  0  0
   -2.5839    0.2133    2.6539 H   0  0  0  0  0  0  0  0  0  0  0  0
   -3.6831   -1.2289    2.5333 H   0  0  0  0  0  0  0  0  0  0  0  0
   -5.8123   -0.3021    0.3886 H   0  0  0  0  0  0  0  0  0  0  0  0
   -5.4748    1.4356    0.0474 H   0  0  0  0  0  0  0  0  0  0  0  0
   -4.0750   -0.7368   -1.0661 H   0  0  0  0  0  0  0  0  0  0  0  0
  1  2  3  0
  2  3  1  0
  3  4  2  0
  4  5  1  0
  5  6  2  0
  6  7  1  0
  7  8  2  0
  8  9  1  0
  9 10  2  0
 10 11  1  0
 11 12  1  0
 12 13  2  0
 12 14  1  0
 14 15  1  0
 15 16  1  0
 16 17  2  0
 16 18  1  0
 18 19  1  0
 19 20  1  0
 20 21  1  0
 20 22  1  0
 20 23  1  0
 23 24  1  0
 24 25  1  0
 25 26  3  0
 11 27  2  0
 27  3  1  0
 27  7  1  0
 24 18  1  0
  4 28  1  0
  5 29  1  0
  6 30  1  0
  9 31  1  0
 10 32  1  0
 14 33  1  0
 15 34  1  0
 15 35  1  0
 19 36  1  0
 19 37  1  0
 23 38  1  0
 23 39  1  0
 24 40  1  6
M  END
$$$$
