
     RDKit          3D

 60 63  0  0  0  0  0  0  0  0999 V2000
   -2.3245    4.8406    1.7069 C   0  0  0  0  0  0  0  0  0  0  0  0
   -1.7899    3.8027    0.8261 C   0  0  0  0  0  0  0  0  0  0  0  0
   -1.3508    2.9455    0.1018 C   0  0  0  0  0  0  0  0  0  0  0  0
   -0.8205    1.8974   -0.7750 C   0  0  0  0  0  0  0  0  0  0  0  0
   -0.9220    0.5939   -0.1149 N   0  0  0  0  0  0  0  0  0  0  0  0
   -1.8636   -0.3610   -0.3421 C   0  0  0  0  0  0  0  0  0  0  0  0
   -2.9461   -0.2222   -1.2709 N   0  0  0  0  0  0  0  0  0  0  0  0
   -2.9265   -0.9745   -2.5288 C   0  0  0  0  0  0  0  0  0  0  0  0
   -4.2450   -1.7390   -2.7258 C   0  0  0  0  0  0  0  0  0  0  0  0
   -5.4976   -0.9552   -2.2695 C   0  0  0  0  0  0  0  0  0  0  0  0
   -5.2076    0.5259   -1.9730 C   0  0  1  0  0  0  0  0  0  0  0  0
   -6.4262    1.1976   -1.5167 N   0  0  0  0  0  0  0  0  0  0  0  0
   -4.0813    0.6426   -0.9268 C   0  0  0  0  0  0  0  0  0  0  0  0
   -1.6483   -1.4773    0.4570 C   0  0  0  0  0  0  0  0  0  0  0  0
   -2.4426   -2.6747    0.5241 C   0  0  0  0  0  0  0  0  0  0  0  0
   -3.0824   -3.6373    0.5772 N   0  0  0  0  0  0  0  0  0  0  0  0
   -0.5385   -1.1669    1.2045 C   0  0  0  0  0  0  0  0  0  0  0  0
    0.0790   -1.8962    2.1597 N   0  0  0  0  0  0  0  0  0  0  0  0
    1.1696   -1.3641    2.7833 C   0  0  0  0  0  0  0  0  0  0  0  0
    1.6357   -0.1090    2.4520 N   0  0  0  0  0  0  0  0  0  0  0  0
    2.8235    0.4264    3.1397 C   0  0  0  0  0  0  0  0  0  0  0  0
    3.9816    0.5563    2.1833 C   0  0  0  0  0  0  0  0  0  0  0  0
    4.4298    1.7098    1.9392 O   0  0  0  0  0  0  0  0  0  0  0  0
    4.5751   -0.6161    1.4905 C   0  0  0  0  0  0  0  0  0  0  0  0
    4.4901   -1.9096    2.0363 C   0  0  0  0  0  0  0  0  0  0  0  0
    5.0461   -2.9994    1.3637 C   0  0  0  0  0  0  0  0  0  0  0  0
    5.6971   -2.8144    0.1435 C   0  0  0  0  0  0  0  0  0  0  0  0
    5.8039   -1.5376   -0.4163 C   0  0  0  0  0  0  0  0  0  0  0  0
    6.4698   -1.4039   -1.6439 O   0  0  0  0  0  0  0  0  0  0  0  0
    6.6511   -0.1702   -2.3316 C   0  0  0  0  0  0  0  0  0  0  0  0
    5.2434   -0.4383    0.2640 C   0  0  0  0  0  0  0  0  0  0  0  0
    0.9892    0.6382    1.4906 C   0  0  0  0  0  0  0  0  0  0  0  0
    1.3853    1.7997    1.2000 O   0  0  0  0  0  0  0  0  0  0  0  0
   -0.1197    0.0808    0.8500 C   0  0  0  0  0  0  0  0  0  0  0  0
   -3.4254    4.7278    1.7853 H   0  0  0  0  0  0  0  0  0  0  0  0
   -2.0838    5.8400    1.2897 H   0  0  0  0  0  0  0  0  0  0  0  0
   -1.8699    4.7409    2.7140 H   0  0  0  0  0  0  0  0  0  0  0  0
   -1.3922    1.8970   -1.7266 H   0  0  0  0  0  0  0  0  0  0  0  0
    0.2367    2.1189   -1.0279 H   0  0  0  0  0  0  0  0  0  0  0  0
   -2.0768   -1.6924   -2.5498 H   0  0  0  0  0  0  0  0  0  0  0  0
   -2.7815   -0.2622   -3.3696 H   0  0  0  0  0  0  0  0  0  0  0  0
   -4.3428   -2.0028   -3.8014 H   0  0  0  0  0  0  0  0  0  0  0  0
   -4.1932   -2.6945   -2.1594 H   0  0  0  0  0  0  0  0  0  0  0  0
   -6.2823   -1.0253   -3.0543 H   0  0  0  0  0  0  0  0  0  0  0  0
   -5.9064   -1.4339   -1.3517 H   0  0  0  0  0  0  0  0  0  0  0  0
   -4.8742    1.0141   -2.9164 H   0  0  0  0  0  0  0  0  0  0  0  0
   -6.7169    0.8042   -0.5916 H   0  0  0  0  0  0  0  0  0  0  0  0
   -6.2126    2.2111   -1.3704 H   0  0  0  0  0  0  0  0  0  0  0  0
   -3.7459    1.6987   -0.8660 H   0  0  0  0  0  0  0  0  0  0  0  0
   -4.4686    0.3426    0.0717 H   0  0  0  0  0  0  0  0  0  0  0  0
    1.6596   -1.9491    3.5508 H   0  0  0  0  0  0  0  0  0  0  0  0
    3.1218   -0.2088    4.0013 H   0  0  0  0  0  0  0  0  0  0  0  0
    2.5769    1.4219    3.5709 H   0  0  0  0  0  0  0  0  0  0  0  0
    4.0149   -2.0840    2.9903 H   0  0  0  0  0  0  0  0  0  0  0  0
    4.9764   -3.9909    1.7925 H   0  0  0  0  0  0  0  0  0  0  0  0
    6.1244   -3.6670   -0.3690 H   0  0  0  0  0  0  0  0  0  0  0  0
    7.2377    0.5340   -1.7044 H   0  0  0  0  0  0  0  0  0  0  0  0
    5.6655    0.2735   -2.5862 H   0  0  0  0  0  0  0  0  0  0  0  0
    7.2094   -0.3579   -3.2715 H   0  0  0  0  0  0  0  0  0  0  0  0
    5.3120    0.5531   -0.1632 H   0  0  0  0  0  0  0  0  0  0  0  0
  1  2  1  0
  2  3  3  0
  3  4  1  0
  4  5  1  0
  5  6  1  0
  6  7  1  0
  7  8  1  0
  8  9  1  0
  9 10  1  0
 10 11  1  0
 11 12  1  0
 11 13  1  0
  6 14  2  0
 14 15  1  0
 15 16  3  0
 14 17  1  0
 17 18  1  0
 18 19  2  0
 19 20  1  0
 20 21  1  0
 21 22  1  0
 22 23  2  0
 22 24  1  0
 24 25  2  0
 25 26  1  0
 26 27  2  0
 27 28  1  0
 28 29  1  0
 29 30  1  0
 28 31  2  0
 20 32  1  0
 32 33  2  0
 32 34  1  0
 34  5  1  0
 13  7  1  0
 34 17  2  0
 31 24  1  0
  1 35  1  0
  1 36  1  0
  1 37  1  0
  4 38  1  0
  4 39  1  0
  8 40  1  0
  8 41  1  0
  9 42  1  0
  9 43  1  0
 10 44  1  0
 10 45  1  0
 11 46  1  6
 12 47  1  0
 12 48  1  0
 13 49  1  0
 13 50  1  0
 19 51  1  0
 21 52  1  0
 21 53  1  0
 25 54  1  0
 26 55  1  0
 27 56  1  0
 30 57  1  0
 30 58  1  0
 30 59  1  0
 31 60  1  0
M  END
$$$$
