
     RDKit          3D

 37 39  0  0  0  0  0  0  0  0999 V2000
   -2.5523    2.6888   -1.3994 N   0  0  0  0  0  0  0  0  0  0  0  0
   -2.3872    1.2547   -1.6136 C   0  0  0  0  0  0  0  0  0  0  0  0
   -0.9964    0.8189   -1.1968 C   0  0  0  0  0  0  0  0  0  0  0  0
    0.1360    1.1531   -1.9762 C   0  0  0  0  0  0  0  0  0  0  0  0
    0.0336    1.9491   -3.1628 N   0  0  0  0  0  0  0  0  0  0  0  0
    1.3642    0.7111   -1.6004 N   0  0  0  0  0  0  0  0  0  0  0  0
    1.5485   -0.0428   -0.4864 C   0  0  0  0  0  0  0  0  0  0  0  0
    2.9054   -0.5134   -0.1135 C   0  0  0  0  0  0  0  0  0  0  0  0
    3.0986   -1.3070    1.0342 C   0  0  0  0  0  0  0  0  0  0  0  0
    4.3780   -1.7501    1.3829 C   0  0  0  0  0  0  0  0  0  0  0  0
    5.4785   -1.4087    0.5939 C   0  0  0  0  0  0  0  0  0  0  0  0
    6.7171   -1.8413    0.9370 F   0  0  0  0  0  0  0  0  0  0  0  0
    5.3015   -0.6222   -0.5475 C   0  0  0  0  0  0  0  0  0  0  0  0
    6.3690   -0.2898   -1.3150 F   0  0  0  0  0  0  0  0  0  0  0  0
    4.0237   -0.1764   -0.9010 C   0  0  0  0  0  0  0  0  0  0  0  0
    0.4775   -0.3578    0.2853 N   0  0  0  0  0  0  0  0  0  0  0  0
   -0.7783    0.0532   -0.0267 C   0  0  0  0  0  0  0  0  0  0  0  0
   -1.8735   -0.3340    0.8823 C   0  0  0  0  0  0  0  0  0  0  0  0
   -2.4497    0.6321    1.7219 C   0  0  0  0  0  0  0  0  0  0  0  0
   -3.4805    0.2812    2.5973 C   0  0  0  0  0  0  0  0  0  0  0  0
   -3.9388   -1.0383    2.6471 C   0  0  0  0  0  0  0  0  0  0  0  0
   -5.2329   -1.4766    3.7471 Cl  0  0  0  0  0  0  0  0  0  0  0  0
   -3.3627   -2.0095    1.8220 C   0  0  0  0  0  0  0  0  0  0  0  0
   -2.3293   -1.6659    0.9419 C   0  0  0  0  0  0  0  0  0  0  0  0
   -1.6420   -2.9172   -0.0880 Cl  0  0  0  0  0  0  0  0  0  0  0  0
   -3.4898    2.9612   -1.7740 H   0  0  0  0  0  0  0  0  0  0  0  0
   -2.5807    2.8662   -0.3696 H   0  0  0  0  0  0  0  0  0  0  0  0
   -2.5402    1.0173   -2.6884 H   0  0  0  0  0  0  0  0  0  0  0  0
   -3.1821    0.7010   -1.0697 H   0  0  0  0  0  0  0  0  0  0  0  0
    0.8913    2.1544   -3.7219 H   0  0  0  0  0  0  0  0  0  0  0  0
   -0.8646    2.3656   -3.4894 H   0  0  0  0  0  0  0  0  0  0  0  0
    2.2633   -1.5873    1.6634 H   0  0  0  0  0  0  0  0  0  0  0  0
    4.5147   -2.3596    2.2670 H   0  0  0  0  0  0  0  0  0  0  0  0
    3.9129    0.4317   -1.7900 H   0  0  0  0  0  0  0  0  0  0  0  0
   -2.0947    1.6548    1.7039 H   0  0  0  0  0  0  0  0  0  0  0  0
   -3.9194    1.0348    3.2387 H   0  0  0  0  0  0  0  0  0  0  0  0
   -3.7187   -3.0313    1.8640 H   0  0  0  0  0  0  0  0  0  0  0  0
  1  2  1  0
  2  3  1  0
  3  4  2  0
  4  5  1  0
  4  6  1  0
  6  7  2  0
  7  8  1  0
  8  9  2  0
  9 10  1  0
 10 11  2  0
 11 12  1  0
 11 13  1  0
 13 14  1  0
 13 15  2  0
  7 16  1  0
 16 17  2  0
 17 18  1  0
 18 19  2  0
 19 20  1  0
 20 21  2  0
 21 22  1  0
 21 23  1  0
 23 24  2  0
 24 25  1  0
 17  3  1  0
 24 18  1  0
 15  8  1  0
  1 26  1  0
  1 27  1  0
  2 28  1  0
  2 29  1  0
  5 30  1  0
  5 31  1  0
  9 32  1  0
 10 33  1  0
 15 34  1  0
 19 35  1  0
 20 36  1  0
 23 37  1  0
M  END
$$$$
