
     RDKit          3D

 50 53  0  0  0  0  0  0  0  0999 V2000
    7.5086   -2.5949   -1.0172 C   0  0  0  0  0  0  0  0  0  0  0  0
    6.0961   -2.5703   -1.1952 O   0  0  0  0  0  0  0  0  0  0  0  0
    5.2469   -1.5924   -0.6564 C   0  0  0  0  0  0  0  0  0  0  0  0
    5.7245   -0.5244    0.1246 C   0  0  0  0  0  0  0  0  0  0  0  0
    4.8381    0.4261    0.6407 C   0  0  0  0  0  0  0  0  0  0  0  0
    3.4573    0.3280    0.3887 C   0  0  0  0  0  0  0  0  0  0  0  0
    2.4985    1.3263    0.9257 C   0  0  0  0  0  0  0  0  0  0  0  0
    1.1759    1.3199    0.5980 N   0  0  0  0  0  0  0  0  0  0  0  0
    0.6785    2.3611    1.2894 C   0  0  0  0  0  0  0  0  0  0  0  0
   -0.6443    2.8107    1.3736 C   0  0  0  0  0  0  0  0  0  0  0  0
   -1.7489    2.1794    0.6189 C   0  0  0  0  0  0  0  0  0  0  0  0
   -2.9159    2.2020    1.0969 O   0  0  0  0  0  0  0  0  0  0  0  0
   -1.5136    1.5599   -0.6552 N   0  0  0  0  0  0  0  0  0  0  0  0
   -2.5007    0.6893   -1.2896 C   0  0  0  0  0  0  0  0  0  0  0  0
   -2.5969   -0.6210   -0.5528 C   0  0  0  0  0  0  0  0  0  0  0  0
   -1.5372   -1.1470   -0.1144 O   0  0  0  0  0  0  0  0  0  0  0  0
   -3.8485   -1.3196   -0.3976 N   0  0  0  0  0  0  0  0  0  0  0  0
   -3.9234   -2.6500    0.1860 C   0  0  0  0  0  0  0  0  0  0  0  0
   -5.3972   -3.0333    0.1591 C   0  0  0  0  0  0  0  0  0  0  0  0
   -6.0487   -2.0863   -0.8439 C   0  0  0  0  0  0  0  0  0  0  0  0
   -5.1351   -0.8624   -0.9062 C   0  0  1  0  0  0  0  0  0  0  0  0
   -5.6546    0.2215   -0.0553 C   0  0  0  0  0  0  0  0  0  0  0  0
   -6.0623    1.0735    0.6134 N   0  0  0  0  0  0  0  0  0  0  0  0
   -0.8882    3.8900    2.2537 C   0  0  0  0  0  0  0  0  0  0  0  0
    0.1787    4.4692    2.9795 C   0  0  0  0  0  0  0  0  0  0  0  0
    1.4503    3.9857    2.8513 N   0  0  0  0  0  0  0  0  0  0  0  0
    1.6692    2.9472    2.0090 C   0  0  0  0  0  0  0  0  0  0  0  0
    2.8293    2.3182    1.7968 N   0  0  0  0  0  0  0  0  0  0  0  0
    2.9879   -0.7407   -0.3961 C   0  0  0  0  0  0  0  0  0  0  0  0
    3.8756   -1.6894   -0.9104 C   0  0  0  0  0  0  0  0  0  0  0  0
    7.9630   -1.6746   -1.4413 H   0  0  0  0  0  0  0  0  0  0  0  0
    7.9258   -3.4745   -1.5488 H   0  0  0  0  0  0  0  0  0  0  0  0
    7.7560   -2.6813    0.0620 H   0  0  0  0  0  0  0  0  0  0  0  0
    6.7795   -0.4178    0.3374 H   0  0  0  0  0  0  0  0  0  0  0  0
    5.2455    1.2365    1.2275 H   0  0  0  0  0  0  0  0  0  0  0  0
   -0.6298    1.7627   -1.1734 H   0  0  0  0  0  0  0  0  0  0  0  0
   -3.4738    1.2175   -1.3318 H   0  0  0  0  0  0  0  0  0  0  0  0
   -2.1879    0.4780   -2.3343 H   0  0  0  0  0  0  0  0  0  0  0  0
   -3.5400   -2.6376    1.2294 H   0  0  0  0  0  0  0  0  0  0  0  0
   -3.3284   -3.3610   -0.4276 H   0  0  0  0  0  0  0  0  0  0  0  0
   -5.8437   -2.8702    1.1647 H   0  0  0  0  0  0  0  0  0  0  0  0
   -5.5365   -4.0959   -0.1363 H   0  0  0  0  0  0  0  0  0  0  0  0
   -6.0691   -2.5767   -1.8423 H   0  0  0  0  0  0  0  0  0  0  0  0
   -7.0947   -1.8417   -0.5522 H   0  0  0  0  0  0  0  0  0  0  0  0
   -5.0424   -0.5107   -1.9566 H   0  0  0  0  0  0  0  0  0  0  0  0
   -1.8880    4.2879    2.3743 H   0  0  0  0  0  0  0  0  0  0  0  0
   -0.0130    5.2981    3.6476 H   0  0  0  0  0  0  0  0  0  0  0  0
    3.7505    2.5388    2.2339 H   0  0  0  0  0  0  0  0  0  0  0  0
    1.9319   -0.8479   -0.6114 H   0  0  0  0  0  0  0  0  0  0  0  0
    3.4949   -2.5062   -1.5106 H   0  0  0  0  0  0  0  0  0  0  0  0
  1  2  1  0
  2  3  1  0
  3  4  2  0
  4  5  1  0
  5  6  2  0
  6  7  1  0
  7  8  2  0
  8  9  1  0
  9 10  2  0
 10 11  1  0
 11 12  2  0
 11 13  1  0
 13 14  1  0
 14 15  1  0
 15 16  2  0
 15 17  1  0
 17 18  1  0
 18 19  1  0
 19 20  1  0
 20 21  1  0
 21 22  1  0
 22 23  3  0
 10 24  1  0
 24 25  2  0
 25 26  1  0
 26 27  2  0
 27 28  1  0
  6 29  1  0
 29 30  2  0
 30  3  1  0
 28  7  1  0
 27  9  1  0
 21 17  1  0
  1 31  1  0
  1 32  1  0
  1 33  1  0
  4 34  1  0
  5 35  1  0
 13 36  1  0
 14 37  1  0
 14 38  1  0
 18 39  1  0
 18 40  1  0
 19 41  1  0
 19 42  1  0
 20 43  1  0
 20 44  1  0
 21 45  1  6
 24 46  1  0
 25 47  1  0
 28 48  1  0
 29 49  1  0
 30 50  1  0
M  END
$$$$
