
     RDKit          3D

 52 54  0  0  0  0  0  0  0  0999 V2000
    3.8325   -0.3337   -3.9927 N   0  0  0  0  0  0  0  0  0  0  0  0
    4.4231    0.0219   -3.0632 C   0  0  0  0  0  0  0  0  0  0  0  0
    5.1602    0.4660   -1.9045 C   0  0  0  0  0  0  0  0  0  0  0  0
    6.3090    1.2449   -2.1055 C   0  0  0  0  0  0  0  0  0  0  0  0
    7.0589    1.6930   -1.0164 C   0  0  0  0  0  0  0  0  0  0  0  0
    6.6694    1.3657    0.2823 C   0  0  0  0  0  0  0  0  0  0  0  0
    5.5277    0.5908    0.4968 C   0  0  0  0  0  0  0  0  0  0  0  0
    4.7578    0.1328   -0.5874 C   0  0  0  0  0  0  0  0  0  0  0  0
    3.5225   -0.6901   -0.2955 C   0  0  0  0  0  0  0  0  0  0  0  0
    2.5051    0.1346    0.3686 N   0  0  0  0  0  0  0  0  0  0  0  0
    2.2541    0.0208    1.8064 C   0  0  0  0  0  0  0  0  0  0  0  0
    0.7498   -0.1096    2.0656 C   0  0  0  0  0  0  0  0  0  0  0  0
   -0.0322    0.9156    1.3460 N   0  0  0  0  0  0  0  0  0  0  0  0
   -1.4050    1.1618    1.7155 C   0  0  0  0  0  0  0  0  0  0  0  0
   -1.8940    2.3142    1.5592 O   0  0  0  0  0  0  0  0  0  0  0  0
   -2.3033    0.0633    2.2317 C   0  0  0  0  0  0  0  0  0  0  0  0
   -3.0601   -0.6875    1.1091 C   0  0  2  0  0  0  0  0  0  0  0  0
   -2.1458   -1.4310    0.2365 N   0  0  0  0  0  0  0  0  0  0  0  0
   -3.9538    0.2542    0.2762 C   0  0  0  0  0  0  0  0  0  0  0  0
   -4.8511   -0.5227   -0.6553 C   0  0  0  0  0  0  0  0  0  0  0  0
   -4.4511   -0.7609   -1.9816 C   0  0  0  0  0  0  0  0  0  0  0  0
   -5.2645   -1.5046   -2.8422 C   0  0  0  0  0  0  0  0  0  0  0  0
   -4.8708   -1.7256   -4.1209 F   0  0  0  0  0  0  0  0  0  0  0  0
   -6.4796   -2.0224   -2.3838 C   0  0  0  0  0  0  0  0  0  0  0  0
   -7.2687   -2.7448   -3.2170 F   0  0  0  0  0  0  0  0  0  0  0  0
   -6.8802   -1.7997   -1.0634 C   0  0  0  0  0  0  0  0  0  0  0  0
   -6.0704   -1.0568   -0.1981 C   0  0  0  0  0  0  0  0  0  0  0  0
   -6.4731   -0.8616    1.0833 F   0  0  0  0  0  0  0  0  0  0  0  0
    0.5866    1.7842    0.3290 C   0  0  0  0  0  0  0  0  0  0  0  0
    1.7068    1.0730   -0.3674 C   0  0  0  0  0  0  0  0  0  0  0  0
    1.9512    1.3196   -1.5790 O   0  0  0  0  0  0  0  0  0  0  0  0
    6.6265    1.5062   -3.1082 H   0  0  0  0  0  0  0  0  0  0  0  0
    7.9442    2.2938   -1.1798 H   0  0  0  0  0  0  0  0  0  0  0  0
    7.2529    1.7132    1.1251 H   0  0  0  0  0  0  0  0  0  0  0  0
    5.2417    0.3468    1.5125 H   0  0  0  0  0  0  0  0  0  0  0  0
    3.8169   -1.5437    0.3524 H   0  0  0  0  0  0  0  0  0  0  0  0
    3.0875   -1.1478   -1.2081 H   0  0  0  0  0  0  0  0  0  0  0  0
    2.7820   -0.8535    2.2442 H   0  0  0  0  0  0  0  0  0  0  0  0
    2.6333    0.9355    2.3120 H   0  0  0  0  0  0  0  0  0  0  0  0
    0.4178   -1.1186    1.7433 H   0  0  0  0  0  0  0  0  0  0  0  0
    0.5785   -0.0120    3.1597 H   0  0  0  0  0  0  0  0  0  0  0  0
   -3.0480    0.5111    2.9257 H   0  0  0  0  0  0  0  0  0  0  0  0
   -1.7282   -0.6660    2.8378 H   0  0  0  0  0  0  0  0  0  0  0  0
   -3.7246   -1.4251    1.6131 H   0  0  0  0  0  0  0  0  0  0  0  0
   -1.5975   -2.1072    0.8155 H   0  0  0  0  0  0  0  0  0  0  0  0
   -1.4727   -0.7734   -0.2187 H   0  0  0  0  0  0  0  0  0  0  0  0
   -4.5789    0.8748    0.9550 H   0  0  0  0  0  0  0  0  0  0  0  0
   -3.3238    0.9576   -0.3111 H   0  0  0  0  0  0  0  0  0  0  0  0
   -3.5084   -0.3724   -2.3470 H   0  0  0  0  0  0  0  0  0  0  0  0
   -7.8187   -2.2062   -0.7087 H   0  0  0  0  0  0  0  0  0  0  0  0
    0.9801    2.7012    0.8163 H   0  0  0  0  0  0  0  0  0  0  0  0
   -0.1718    2.0803   -0.4292 H   0  0  0  0  0  0  0  0  0  0  0  0
  1  2  3  0
  2  3  1  0
  3  4  2  0
  4  5  1  0
  5  6  2  0
  6  7  1  0
  7  8  2  0
  8  9  1  0
  9 10  1  0
 10 11  1  0
 11 12  1  0
 12 13  1  0
 13 14  1  0
 14 15  2  0
 14 16  1  0
 16 17  1  0
 17 18  1  0
 17 19  1  0
 19 20  1  0
 20 21  2  0
 21 22  1  0
 22 23  1  0
 22 24  2  0
 24 25  1  0
 24 26  1  0
 26 27  2  0
 27 28  1  0
 13 29  1  0
 29 30  1  0
 30 31  2  0
  8  3  1  0
 30 10  1  0
 27 20  1  0
  4 32  1  0
  5 33  1  0
  6 34  1  0
  7 35  1  0
  9 36  1  0
  9 37  1  0
 11 38  1  0
 11 39  1  0
 12 40  1  0
 12 41  1  0
 16 42  1  0
 16 43  1  0
 17 44  1  1
 18 45  1  0
 18 46  1  0
 19 47  1  0
 19 48  1  0
 21 49  1  0
 26 50  1  0
 29 51  1  0
 29 52  1  0
M  END
$$$$
