
     RDKit          3D

 48 50  0  0  0  0  0  0  0  0999 V2000
    1.0664    3.2405   -0.0249 C   0  0  0  0  0  0  0  0  0  0  0  0
    0.2262    2.5673    0.9675 N   0  0  0  0  0  0  0  0  0  0  0  0
    0.6916    1.1975    1.2246 C   0  0  0  0  0  0  0  0  0  0  0  0
    0.2803    0.2583    0.0868 C   0  0  0  0  0  0  0  0  0  0  0  0
   -1.1028   -0.0200   -0.0854 C   0  0  0  0  0  0  0  0  0  0  0  0
   -2.1059    0.5581    0.8423 C   0  0  0  0  0  0  0  0  0  0  0  0
   -2.7837    1.7388    0.5010 C   0  0  0  0  0  0  0  0  0  0  0  0
   -3.7387    2.2750    1.3700 C   0  0  0  0  0  0  0  0  0  0  0  0
   -4.0259    1.6320    2.5779 C   0  0  0  0  0  0  0  0  0  0  0  0
   -3.3601    0.4504    2.9175 C   0  0  0  0  0  0  0  0  0  0  0  0
   -2.4041   -0.0888    2.0513 C   0  0  0  0  0  0  0  0  0  0  0  0
   -1.5236   -0.8478   -1.1468 C   0  0  0  0  0  0  0  0  0  0  0  0
   -2.8880   -1.1606   -1.3520 C   0  0  0  0  0  0  0  0  0  0  0  0
   -3.2810   -1.9804   -2.4119 C   0  0  0  0  0  0  0  0  0  0  0  0
   -4.9785   -2.3550   -2.6495 Cl  0  0  0  0  0  0  0  0  0  0  0  0
   -2.3256   -2.5023   -3.2811 C   0  0  0  0  0  0  0  0  0  0  0  0
   -0.9756   -2.2088   -3.0933 C   0  0  0  0  0  0  0  0  0  0  0  0
   -0.5610   -1.3822   -2.0273 C   0  0  0  0  0  0  0  0  0  0  0  0
    0.7985   -1.0892   -1.8282 C   0  0  0  0  0  0  0  0  0  0  0  0
    1.6502   -1.5824   -2.6222 O   0  0  0  0  0  0  0  0  0  0  0  0
    1.2086   -0.2857   -0.7871 N   0  0  0  0  0  0  0  0  0  0  0  0
    2.6635   -0.0489   -0.6127 C   0  0  0  0  0  0  0  0  0  0  0  0
    3.2668   -0.9755    0.4695 C   0  0  0  0  0  0  0  0  0  0  0  0
    4.6849   -0.5163    0.8285 C   0  0  0  0  0  0  0  0  0  0  0  0
    3.2873   -2.4398    0.0116 C   0  0  0  0  0  0  0  0  0  0  0  0
    2.1207    3.3029    0.3236 H   0  0  0  0  0  0  0  0  0  0  0  0
    0.6891    4.2727   -0.1831 H   0  0  0  0  0  0  0  0  0  0  0  0
    1.0193    2.7095   -0.9994 H   0  0  0  0  0  0  0  0  0  0  0  0
    0.3063    3.1057    1.8618 H   0  0  0  0  0  0  0  0  0  0  0  0
    1.7708    1.1976    1.4673 H   0  0  0  0  0  0  0  0  0  0  0  0
    0.2223    0.8306    2.1624 H   0  0  0  0  0  0  0  0  0  0  0  0
   -2.5687    2.2417   -0.4339 H   0  0  0  0  0  0  0  0  0  0  0  0
   -4.2570    3.1879    1.1067 H   0  0  0  0  0  0  0  0  0  0  0  0
   -4.7658    2.0480    3.2493 H   0  0  0  0  0  0  0  0  0  0  0  0
   -3.5859   -0.0482    3.8512 H   0  0  0  0  0  0  0  0  0  0  0  0
   -1.8952   -1.0063    2.3203 H   0  0  0  0  0  0  0  0  0  0  0  0
   -3.6586   -0.7771   -0.6962 H   0  0  0  0  0  0  0  0  0  0  0  0
   -2.6275   -3.1384   -4.1035 H   0  0  0  0  0  0  0  0  0  0  0  0
   -0.2583   -2.6327   -3.7853 H   0  0  0  0  0  0  0  0  0  0  0  0
    2.8554    1.0172   -0.3791 H   0  0  0  0  0  0  0  0  0  0  0  0
    3.2211   -0.1886   -1.5646 H   0  0  0  0  0  0  0  0  0  0  0  0
    2.6506   -0.9218    1.3922 H   0  0  0  0  0  0  0  0  0  0  0  0
    5.3479   -0.5593   -0.0623 H   0  0  0  0  0  0  0  0  0  0  0  0
    4.6639    0.5266    1.2112 H   0  0  0  0  0  0  0  0  0  0  0  0
    5.1097   -1.1643    1.6247 H   0  0  0  0  0  0  0  0  0  0  0  0
    3.8576   -2.5484   -0.9358 H   0  0  0  0  0  0  0  0  0  0  0  0
    2.2525   -2.8111   -0.1412 H   0  0  0  0  0  0  0  0  0  0  0  0
    3.7603   -3.0783    0.7879 H   0  0  0  0  0  0  0  0  0  0  0  0
  1  2  1  0
  2  3  1  0
  3  4  1  0
  4  5  2  0
  5  6  1  0
  6  7  2  0
  7  8  1  0
  8  9  2  0
  9 10  1  0
 10 11  2  0
  5 12  1  0
 12 13  2  0
 13 14  1  0
 14 15  1  0
 14 16  2  0
 16 17  1  0
 17 18  2  0
 18 19  1  0
 19 20  2  0
 19 21  1  0
 21 22  1  0
 22 23  1  0
 23 24  1  0
 23 25  1  0
 21  4  1  0
 11  6  1  0
 18 12  1  0
  1 26  1  0
  1 27  1  0
  1 28  1  0
  2 29  1  0
  3 30  1  0
  3 31  1  0
  7 32  1  0
  8 33  1  0
  9 34  1  0
 10 35  1  0
 11 36  1  0
 13 37  1  0
 16 38  1  0
 17 39  1  0
 22 40  1  0
 22 41  1  0
 23 42  1  0
 24 43  1  0
 24 44  1  0
 24 45  1  0
 25 46  1  0
 25 47  1  0
 25 48  1  0
M  END
$$$$
