
     RDKit          3D

 76 78  0  0  0  0  0  0  0  0999 V2000
   -7.0894   -1.6560    1.1378 C   0  0  0  0  0  0  0  0  0  0  0  0
   -6.9325   -0.2019    1.3922 N   0  0  0  0  0  0  0  0  0  0  0  0
   -7.0938    0.5477    0.1225 C   0  0  0  0  0  0  0  0  0  0  0  0
   -8.0113    0.2192    2.3290 C   0  0  0  0  0  0  0  0  0  0  0  0
   -9.2736   -0.0640    1.8258 F   0  0  0  0  0  0  0  0  0  0  0  0
   -5.6152    0.0869    2.0571 C   0  0  0  0  0  0  0  0  0  0  0  0
   -4.3617    0.2257    1.1510 C   0  0  0  0  0  0  0  0  0  0  0  0
   -3.8741   -1.0807    0.5103 C   0  0  0  0  0  0  0  0  0  0  0  0
   -2.4883   -0.9868    0.1771 O   0  0  0  0  0  0  0  0  0  0  0  0
   -1.9508   -0.2405   -0.8853 C   0  0  0  0  0  0  0  0  0  0  0  0
   -2.7534    0.3978   -1.8485 C   0  0  0  0  0  0  0  0  0  0  0  0
   -2.1663    1.1116   -2.8936 C   0  0  0  0  0  0  0  0  0  0  0  0
   -0.7756    1.2069   -2.9905 C   0  0  0  0  0  0  0  0  0  0  0  0
   -0.2233    1.8830   -4.0318 N   0  0  0  0  0  0  0  0  0  0  0  0
    1.1200    1.9934   -4.1824 C   0  0  0  0  0  0  0  0  0  0  0  0
    1.9802    1.4150   -3.2508 C   0  0  0  0  0  0  0  0  0  0  0  0
    1.4597    0.7181   -2.1493 C   0  0  0  0  0  0  0  0  0  0  0  0
    2.4117    0.1777   -1.1523 C   0  0  0  0  0  0  0  0  0  0  0  0
    2.2176    0.3856    0.0765 O   0  0  0  0  0  0  0  0  0  0  0  0
    3.5794   -0.5383   -1.5827 N   0  0  0  0  0  0  0  0  0  0  0  0
    4.5964   -1.0137   -0.6452 C   0  0  0  0  0  0  0  0  0  0  0  0
    5.4991    0.1052   -0.1936 C   0  0  0  0  0  0  0  0  0  0  0  0
    5.2305    1.2961   -0.5129 O   0  0  0  0  0  0  0  0  0  0  0  0
    6.6655   -0.1706    0.6062 N   0  0  0  0  0  0  0  0  0  0  0  0
    6.9372   -1.4657    1.2100 C   0  0  0  0  0  0  0  0  0  0  0  0
    8.0351   -1.2166    2.2386 C   0  0  0  0  0  0  0  0  0  0  0  0
    7.4807   -1.1112    3.5041 F   0  0  0  0  0  0  0  0  0  0  0  0
    8.9654   -2.2425    2.2289 F   0  0  0  0  0  0  0  0  0  0  0  0
    8.6785    0.1122    1.8449 C   0  0  0  0  0  0  0  0  0  0  0  0
    7.6246    0.8483    1.0136 C   0  0  1  0  0  0  0  0  0  0  0  0
    8.2339    1.4955   -0.1612 C   0  0  0  0  0  0  0  0  0  0  0  0
    8.7119    2.0039   -1.0843 N   0  0  0  0  0  0  0  0  0  0  0  0
    0.0520    0.5921   -2.0185 C   0  0  0  0  0  0  0  0  0  0  0  0
   -0.5568   -0.1473   -0.9825 C   0  0  0  0  0  0  0  0  0  0  0  0
    2.9531    0.9836    0.8452 O   0  0  0  0  0  0  0  0  0  0  0  0
    2.3801   -0.1051   -0.0180 S   0  0  0  0  0  0  0  0  0  0  0  0
    2.8439   -1.4338    0.5094 O   0  0  0  0  0  0  0  0  0  0  0  0
    2.9194    0.0898   -1.5965 O   0  0  0  0  0  0  0  0  0  0  0  0
    0.6218   -0.0300    0.0137 C   0  0  0  0  0  0  0  0  0  0  0  0
   -0.0291    1.2011    0.1815 C   0  0  0  0  0  0  0  0  0  0  0  0
   -1.4264    1.2607    0.1959 C   0  0  0  0  0  0  0  0  0  0  0  0
   -2.1789    0.0932    0.0382 C   0  0  0  0  0  0  0  0  0  0  0  0
   -1.5347   -1.1351   -0.1367 C   0  0  0  0  0  0  0  0  0  0  0  0
   -0.1376   -1.1978   -0.1515 C   0  0  0  0  0  0  0  0  0  0  0  0
   -6.3702   -2.0284    0.3876 H   0  0  0  0  0  0  0  0  0  0  0  0
   -8.0986   -1.8893    0.7318 H   0  0  0  0  0  0  0  0  0  0  0  0
   -6.9547   -2.2457    2.0718 H   0  0  0  0  0  0  0  0  0  0  0  0
   -6.3970    0.1772   -0.6598 H   0  0  0  0  0  0  0  0  0  0  0  0
   -6.9107    1.6343    0.2779 H   0  0  0  0  0  0  0  0  0  0  0  0
   -8.1193    0.4279   -0.2918 H   0  0  0  0  0  0  0  0  0  0  0  0
   -7.9643    1.3147    2.5230 H   0  0  0  0  0  0  0  0  0  0  0  0
   -7.9066   -0.2984    3.3094 H   0  0  0  0  0  0  0  0  0  0  0  0
   -5.6765    1.0580    2.6014 H   0  0  0  0  0  0  0  0  0  0  0  0
   -5.4023   -0.6695    2.8466 H   0  0  0  0  0  0  0  0  0  0  0  0
   -3.5406    0.5966    1.8037 H   0  0  0  0  0  0  0  0  0  0  0  0
   -4.5034    1.0128    0.3835 H   0  0  0  0  0  0  0  0  0  0  0  0
   -4.4560   -1.3300   -0.3989 H   0  0  0  0  0  0  0  0  0  0  0  0
   -3.9910   -1.9130    1.2360 H   0  0  0  0  0  0  0  0  0  0  0  0
   -3.8313    0.3378   -1.8134 H   0  0  0  0  0  0  0  0  0  0  0  0
   -2.7972    1.5854   -3.6358 H   0  0  0  0  0  0  0  0  0  0  0  0
    1.5224    2.5401   -5.0247 H   0  0  0  0  0  0  0  0  0  0  0  0
    3.0496    1.5355   -3.3758 H   0  0  0  0  0  0  0  0  0  0  0  0
    3.6936   -0.7676   -2.5960 H   0  0  0  0  0  0  0  0  0  0  0  0
    5.2169   -1.7858   -1.1482 H   0  0  0  0  0  0  0  0  0  0  0  0
    4.1067   -1.4864    0.2326 H   0  0  0  0  0  0  0  0  0  0  0  0
    7.2812   -2.1734    0.4248 H   0  0  0  0  0  0  0  0  0  0  0  0
    6.0272   -1.8684    1.7053 H   0  0  0  0  0  0  0  0  0  0  0  0
    9.5957   -0.0933    1.2466 H   0  0  0  0  0  0  0  0  0  0  0  0
    8.9677    0.7043    2.7406 H   0  0  0  0  0  0  0  0  0  0  0  0
    7.1106    1.6135    1.6352 H   0  0  0  0  0  0  0  0  0  0  0  0
    0.0347   -0.6749   -0.2478 H   0  0  0  0  0  0  0  0  0  0  0  0
    0.5426    2.1128    0.2988 H   0  0  0  0  0  0  0  0  0  0  0  0
   -1.9258    2.2120    0.3274 H   0  0  0  0  0  0  0  0  0  0  0  0
   -3.2601    0.1406    0.0488 H   0  0  0  0  0  0  0  0  0  0  0  0
   -2.1179   -2.0382   -0.2626 H   0  0  0  0  0  0  0  0  0  0  0  0
    0.3498   -2.1539   -0.2935 H   0  0  0  0  0  0  0  0  0  0  0  0
  1  2  1  0
  2  3  1  0
  2  4  1  0
  4  5  1  0
  2  6  1  0
  6  7  1  0
  7  8  1  0
  8  9  1  0
  9 10  1  0
 10 11  2  0
 11 12  1  0
 12 13  2  0
 13 14  1  0
 14 15  2  0
 15 16  1  0
 16 17  2  0
 17 18  1  0
 18 19  2  0
 18 20  1  0
 20 21  1  0
 21 22  1  0
 22 23  2  0
 22 24  1  0
 24 25  1  0
 25 26  1  0
 26 27  1  0
 26 28  1  0
 26 29  1  0
 29 30  1  0
 30 31  1  0
 31 32  3  0
 17 33  1  0
 33 34  2  0
 35 36  2  0
 36 37  2  0
 36 38  1  0
 36 39  1  0
 39 40  2  0
 40 41  1  0
 41 42  2  0
 42 43  1  0
 43 44  2  0
 34 10  1  0
 44 39  1  0
 33 13  1  0
 30 24  1  0
  1 45  1  0
  1 46  1  0
  1 47  1  0
  3 48  1  0
  3 49  1  0
  3 50  1  0
  4 51  1  0
  4 52  1  0
  6 53  1  0
  6 54  1  0
  7 55  1  0
  7 56  1  0
  8 57  1  0
  8 58  1  0
 11 59  1  0
 12 60  1  0
 15 61  1  0
 16 62  1  0
 20 63  1  0
 21 64  1  0
 21 65  1  0
 25 66  1  0
 25 67  1  0
 29 68  1  0
 29 69  1  0
 30 70  1  1
 34 71  1  0
 40 72  1  0
 41 73  1  0
 42 74  1  0
 43 75  1  0
 44 76  1  0
M  CHG  2   2   1  38  -1
M  END
$$$$
