
     RDKit          3D

 54 56  0  0  0  0  0  0  0  0999 V2000
  -10.1531    0.1718   -0.2916 C   0  0  0  0  0  0  0  0  0  0  0  0
   -9.0948   -0.7534   -0.5179 O   0  0  0  0  0  0  0  0  0  0  0  0
   -7.7335   -0.4147   -0.5179 C   0  0  0  0  0  0  0  0  0  0  0  0
   -6.7962   -1.4260   -0.7561 C   0  0  0  0  0  0  0  0  0  0  0  0
   -5.4278   -1.1406   -0.7642 C   0  0  0  0  0  0  0  0  0  0  0  0
   -4.9738    0.1670   -0.5182 C   0  0  0  0  0  0  0  0  0  0  0  0
   -3.5737    0.4941   -0.5444 N   0  0  0  0  0  0  0  0  0  0  0  0
   -2.5305   -0.3793   -0.0923 C   0  0  0  0  0  0  0  0  0  0  0  0
   -2.8063   -1.4337    0.5437 O   0  0  0  0  0  0  0  0  0  0  0  0
   -1.1978   -0.0263   -0.3329 O   0  0  0  0  0  0  0  0  0  0  0  0
   -0.0814   -0.7957    0.1192 C   0  0  2  0  0  0  0  0  0  0  0  0
    0.1291   -0.6006    1.6413 C   0  0  0  0  0  0  0  0  0  0  0  0
    1.1143    0.5325    1.9372 C   0  0  0  0  0  0  0  0  0  0  0  0
    2.5071    0.2483    1.3396 C   0  0  0  0  0  0  0  0  0  0  0  0
    2.4723   -0.6412    0.0641 C   0  0  2  0  0  0  0  0  0  0  0  0
    3.7168   -0.3957   -0.8329 C   0  0  2  0  0  0  0  0  0  0  0  0
    3.6854   -1.2747   -2.0054 N   0  0  0  0  0  0  0  0  0  0  0  0
    5.0082   -0.6171   -0.0617 C   0  0  0  0  0  0  0  0  0  0  0  0
    5.1818   -1.7262    0.5153 O   0  0  0  0  0  0  0  0  0  0  0  0
    6.0488    0.3809    0.0017 N   0  0  0  0  0  0  0  0  0  0  0  0
    7.3272    0.0893    0.6355 C   0  0  0  0  0  0  0  0  0  0  0  0
    8.2989    1.1963    0.2663 C   0  0  0  0  0  0  0  0  0  0  0  0
    7.3435    2.7100   -0.0196 S   0  0  0  0  0  0  0  0  0  0  0  0
    5.8942    1.7350   -0.5149 C   0  0  0  0  0  0  0  0  0  0  0  0
    1.1599   -0.4013   -0.7134 C   0  0  0  0  0  0  0  0  0  0  0  0
   -5.9134    1.1852   -0.3024 C   0  0  0  0  0  0  0  0  0  0  0  0
   -7.2819    0.8994   -0.2933 C   0  0  0  0  0  0  0  0  0  0  0  0
  -10.0543    0.6259    0.7170 H   0  0  0  0  0  0  0  0  0  0  0  0
  -10.1412    0.9635   -1.0703 H   0  0  0  0  0  0  0  0  0  0  0  0
  -11.1221   -0.3653   -0.3460 H   0  0  0  0  0  0  0  0  0  0  0  0
   -7.1314   -2.4381   -0.9451 H   0  0  0  0  0  0  0  0  0  0  0  0
   -4.7310   -1.9369   -0.9888 H   0  0  0  0  0  0  0  0  0  0  0  0
   -3.2966    1.4611   -0.8276 H   0  0  0  0  0  0  0  0  0  0  0  0
   -0.2855   -1.8745   -0.0680 H   0  0  0  0  0  0  0  0  0  0  0  0
    0.5253   -1.5418    2.0825 H   0  0  0  0  0  0  0  0  0  0  0  0
   -0.8372   -0.3867    2.1459 H   0  0  0  0  0  0  0  0  0  0  0  0
    1.2032    0.6716    3.0364 H   0  0  0  0  0  0  0  0  0  0  0  0
    0.7122    1.4784    1.5114 H   0  0  0  0  0  0  0  0  0  0  0  0
    3.1325   -0.2571    2.1079 H   0  0  0  0  0  0  0  0  0  0  0  0
    2.9876    1.2261    1.1177 H   0  0  0  0  0  0  0  0  0  0  0  0
    2.4807   -1.7084    0.3843 H   0  0  0  0  0  0  0  0  0  0  0  0
    3.6567    0.6492   -1.1999 H   0  0  0  0  0  0  0  0  0  0  0  0
    3.7817   -2.2711   -1.7004 H   0  0  0  0  0  0  0  0  0  0  0  0
    4.5063   -1.0512   -2.6145 H   0  0  0  0  0  0  0  0  0  0  0  0
    7.7241   -0.8868    0.2805 H   0  0  0  0  0  0  0  0  0  0  0  0
    7.1894    0.0514    1.7378 H   0  0  0  0  0  0  0  0  0  0  0  0
    8.8309    0.9334   -0.6732 H   0  0  0  0  0  0  0  0  0  0  0  0
    9.0427    1.3565    1.0750 H   0  0  0  0  0  0  0  0  0  0  0  0
    4.9905    2.2119   -0.0818 H   0  0  0  0  0  0  0  0  0  0  0  0
    5.8246    1.7117   -1.6229 H   0  0  0  0  0  0  0  0  0  0  0  0
    1.1493   -0.9886   -1.6568 H   0  0  0  0  0  0  0  0  0  0  0  0
    1.0998    0.6746   -0.9929 H   0  0  0  0  0  0  0  0  0  0  0  0
   -5.5827    2.2019   -0.1302 H   0  0  0  0  0  0  0  0  0  0  0  0
   -7.9789    1.7064   -0.1132 H   0  0  0  0  0  0  0  0  0  0  0  0
  1  2  1  0
  2  3  1  0
  3  4  2  0
  4  5  1  0
  5  6  2  0
  6  7  1  0
  7  8  1  0
  8  9  2  0
  8 10  1  0
 10 11  1  0
 11 12  1  0
 12 13  1  0
 13 14  1  0
 14 15  1  0
 15 16  1  0
 16 17  1  0
 16 18  1  0
 18 19  2  0
 18 20  1  0
 20 21  1  0
 21 22  1  0
 22 23  1  0
 23 24  1  0
 15 25  1  0
  6 26  1  0
 26 27  2  0
 27  3  1  0
 25 11  1  0
 24 20  1  0
  1 28  1  0
  1 29  1  0
  1 30  1  0
  4 31  1  0
  5 32  1  0
  7 33  1  0
 11 34  1  1
 12 35  1  0
 12 36  1  0
 13 37  1  0
 13 38  1  0
 14 39  1  0
 14 40  1  0
 15 41  1  1
 16 42  1  6
 17 43  1  0
 17 44  1  0
 21 45  1  0
 21 46  1  0
 22 47  1  0
 22 48  1  0
 24 49  1  0
 24 50  1  0
 25 51  1  0
 25 52  1  0
 26 53  1  0
 27 54  1  0
M  END
$$$$
