
     RDKit          3D

 43 45  0  0  0  0  0  0  0  0999 V2000
   -1.1192    0.8862    2.9893 N   0  0  0  0  0  0  0  0  0  0  0  0
   -1.6393    0.7404    1.6249 C   0  0  2  0  0  0  0  0  0  0  0  0
   -2.8227   -0.2587    1.6294 C   0  0  0  0  0  0  0  0  0  0  0  0
   -3.5447   -0.3074    0.3022 C   0  0  0  0  0  0  0  0  0  0  0  0
   -4.3479    0.7769   -0.0929 C   0  0  0  0  0  0  0  0  0  0  0  0
   -5.0081    0.7571   -1.3251 C   0  0  0  0  0  0  0  0  0  0  0  0
   -5.7787    1.8085   -1.6978 F   0  0  0  0  0  0  0  0  0  0  0  0
   -4.8739   -0.3449   -2.1728 C   0  0  0  0  0  0  0  0  0  0  0  0
   -4.0815   -1.4294   -1.7891 C   0  0  0  0  0  0  0  0  0  0  0  0
   -3.4183   -1.4165   -0.5576 C   0  0  0  0  0  0  0  0  0  0  0  0
   -2.6589   -2.4852   -0.2087 F   0  0  0  0  0  0  0  0  0  0  0  0
   -0.5022    0.3274    0.6362 C   0  0  0  0  0  0  0  0  0  0  0  0
    0.4764    1.5086    0.3572 C   0  0  0  0  0  0  0  0  0  0  0  0
    1.9078    1.2392    0.8341 C   0  0  0  0  0  0  0  0  0  0  0  0
    2.3917   -0.0340    0.2795 N   0  0  0  0  0  0  0  0  0  0  0  0
    3.7511   -0.1716   -0.1825 C   0  0  0  0  0  0  0  0  0  0  0  0
    4.6567    0.8251    0.0247 N   0  0  0  0  0  0  0  0  0  0  0  0
    5.9412    0.7095   -0.4011 C   0  0  0  0  0  0  0  0  0  0  0  0
    6.3526   -0.4459   -1.0625 C   0  0  0  0  0  0  0  0  0  0  0  0
    5.4194   -1.4599   -1.2680 C   0  0  0  0  0  0  0  0  0  0  0  0
    4.1440   -1.3061   -0.8270 N   0  0  0  0  0  0  0  0  0  0  0  0
    1.5001   -1.2042    0.2582 C   0  0  0  0  0  0  0  0  0  0  0  0
    0.2320   -0.9620    1.0844 C   0  0  0  0  0  0  0  0  0  0  0  0
   -0.3864    1.6311    2.9963 H   0  0  0  0  0  0  0  0  0  0  0  0
   -1.8871    1.2444    3.6027 H   0  0  0  0  0  0  0  0  0  0  0  0
   -2.0439    1.7266    1.2995 H   0  0  0  0  0  0  0  0  0  0  0  0
   -3.5585    0.0554    2.4018 H   0  0  0  0  0  0  0  0  0  0  0  0
   -2.4760   -1.2670    1.9376 H   0  0  0  0  0  0  0  0  0  0  0  0
   -4.4608    1.6377    0.5548 H   0  0  0  0  0  0  0  0  0  0  0  0
   -5.3846   -0.3603   -3.1270 H   0  0  0  0  0  0  0  0  0  0  0  0
   -3.9816   -2.2823   -2.4482 H   0  0  0  0  0  0  0  0  0  0  0  0
   -0.9791    0.0949   -0.3414 H   0  0  0  0  0  0  0  0  0  0  0  0
    0.5151    1.6908   -0.7401 H   0  0  0  0  0  0  0  0  0  0  0  0
    0.1215    2.4581    0.8126 H   0  0  0  0  0  0  0  0  0  0  0  0
    2.5446    2.0885    0.5060 H   0  0  0  0  0  0  0  0  0  0  0  0
    1.9387    1.1950    1.9440 H   0  0  0  0  0  0  0  0  0  0  0  0
    6.6419    1.5147   -0.2255 H   0  0  0  0  0  0  0  0  0  0  0  0
    7.3727   -0.5532   -1.4078 H   0  0  0  0  0  0  0  0  0  0  0  0
    5.7075   -2.3696   -1.7776 H   0  0  0  0  0  0  0  0  0  0  0  0
    1.2228   -1.4352   -0.7932 H   0  0  0  0  0  0  0  0  0  0  0  0
    2.0277   -2.0855    0.6844 H   0  0  0  0  0  0  0  0  0  0  0  0
    0.5217   -0.8951    2.1552 H   0  0  0  0  0  0  0  0  0  0  0  0
   -0.4336   -1.8423    0.9720 H   0  0  0  0  0  0  0  0  0  0  0  0
  1  2  1  0
  2  3  1  0
  3  4  1  0
  4  5  2  0
  5  6  1  0
  6  7  1  0
  6  8  2  0
  8  9  1  0
  9 10  2  0
 10 11  1  0
  2 12  1  0
 12 13  1  0
 13 14  1  0
 14 15  1  0
 15 16  1  0
 16 17  2  0
 17 18  1  0
 18 19  2  0
 19 20  1  0
 20 21  2  0
 15 22  1  0
 22 23  1  0
 10  4  1  0
 23 12  1  0
 21 16  1  0
  1 24  1  0
  1 25  1  0
  2 26  1  6
  3 27  1  0
  3 28  1  0
  5 29  1  0
  8 30  1  0
  9 31  1  0
 12 32  1  0
 13 33  1  0
 13 34  1  0
 14 35  1  0
 14 36  1  0
 18 37  1  0
 19 38  1  0
 20 39  1  0
 22 40  1  0
 22 41  1  0
 23 42  1  0
 23 43  1  0
M  END
$$$$
