
     RDKit          3D

 36 37  0  0  0  0  0  0  0  0999 V2000
    6.8924    1.4437   -1.7523 N   0  0  0  0  0  0  0  0  0  0  0  0
    5.8399    1.0173   -1.5298 C   0  0  0  0  0  0  0  0  0  0  0  0
    4.5307    0.4868   -1.2530 C   0  0  0  0  0  0  0  0  0  0  0  0
    3.3974    1.2927   -1.4186 C   0  0  0  0  0  0  0  0  0  0  0  0
    2.1257    0.7783   -1.1484 C   0  0  0  0  0  0  0  0  0  0  0  0
    1.9753   -0.5498   -0.7171 C   0  0  0  0  0  0  0  0  0  0  0  0
    0.6060   -1.0906   -0.3959 C   0  0  0  0  0  0  0  0  0  0  0  0
    0.1706   -0.7009    1.0272 C   0  0  2  0  0  0  0  0  0  0  0  0
    1.0589   -1.3125    2.0216 N   0  0  0  0  0  0  0  0  0  0  0  0
   -1.2728   -1.1090    1.2508 C   0  0  0  0  0  0  0  0  0  0  0  0
   -1.5233   -2.2681    1.6820 O   0  0  0  0  0  0  0  0  0  0  0  0
   -2.3685   -0.2452    0.8843 N   0  0  0  0  0  0  0  0  0  0  0  0
   -3.7050   -0.7641    0.6463 C   0  0  0  0  0  0  0  0  0  0  0  0
   -4.4466    0.3299   -0.1076 C   0  0  0  0  0  0  0  0  0  0  0  0
   -3.6568    1.6135    0.1302 C   0  0  0  0  0  0  0  0  0  0  0  0
   -2.2546    1.1719    0.5606 C   0  0  1  0  0  0  0  0  0  0  0  0
   -1.8041    1.9379    1.7355 C   0  0  0  0  0  0  0  0  0  0  0  0
   -1.4491    2.5389    2.6586 N   0  0  0  0  0  0  0  0  0  0  0  0
    3.1160   -1.3503   -0.5423 C   0  0  0  0  0  0  0  0  0  0  0  0
    4.3874   -0.8349   -0.8129 C   0  0  0  0  0  0  0  0  0  0  0  0
    3.4970    2.3183   -1.7533 H   0  0  0  0  0  0  0  0  0  0  0  0
    1.2579    1.4147   -1.2724 H   0  0  0  0  0  0  0  0  0  0  0  0
    0.5931   -2.1976   -0.5076 H   0  0  0  0  0  0  0  0  0  0  0  0
   -0.1227   -0.6863   -1.1331 H   0  0  0  0  0  0  0  0  0  0  0  0
    0.2657    0.3990    1.1302 H   0  0  0  0  0  0  0  0  0  0  0  0
    0.7328   -1.0394    2.9775 H   0  0  0  0  0  0  0  0  0  0  0  0
    1.0067   -2.3553    1.9529 H   0  0  0  0  0  0  0  0  0  0  0  0
   -3.6624   -1.6910    0.0332 H   0  0  0  0  0  0  0  0  0  0  0  0
   -4.1992   -0.9769    1.6189 H   0  0  0  0  0  0  0  0  0  0  0  0
   -5.4955    0.4256    0.2482 H   0  0  0  0  0  0  0  0  0  0  0  0
   -4.4513    0.0950   -1.1949 H   0  0  0  0  0  0  0  0  0  0  0  0
   -4.1675    2.2045    0.9247 H   0  0  0  0  0  0  0  0  0  0  0  0
   -3.6142    2.2295   -0.7946 H   0  0  0  0  0  0  0  0  0  0  0  0
   -1.5388    1.3112   -0.2783 H   0  0  0  0  0  0  0  0  0  0  0  0
    3.0210   -2.3716   -0.1946 H   0  0  0  0  0  0  0  0  0  0  0  0
    5.2578   -1.4654   -0.6761 H   0  0  0  0  0  0  0  0  0  0  0  0
  1  2  3  0
  2  3  1  0
  3  4  2  0
  4  5  1  0
  5  6  2  0
  6  7  1  0
  7  8  1  0
  8  9  1  0
  8 10  1  0
 10 11  2  0
 10 12  1  0
 12 13  1  0
 13 14  1  0
 14 15  1  0
 15 16  1  0
 16 17  1  0
 17 18  3  0
  6 19  1  0
 19 20  2  0
 20  3  1  0
 16 12  1  0
  4 21  1  0
  5 22  1  0
  7 23  1  0
  7 24  1  0
  8 25  1  6
  9 26  1  0
  9 27  1  0
 13 28  1  0
 13 29  1  0
 14 30  1  0
 14 31  1  0
 15 32  1  0
 15 33  1  0
 16 34  1  6
 19 35  1  0
 20 36  1  0
M  END
$$$$
