
     RDKit          3D

 49 52  0  0  0  0  0  0  0  0999 V2000
   -6.3389   -2.9636    0.0327 N   0  0  0  0  0  0  0  0  0  0  0  0
   -6.0063   -1.8867    0.2951 C   0  0  0  0  0  0  0  0  0  0  0  0
   -5.5822   -0.5171    0.6289 C   0  0  2  0  0  0  0  0  0  0  0  0
   -6.5088    0.5186   -0.0074 C   0  0  0  0  0  0  0  0  0  0  0  0
   -5.7803    1.0123   -1.2536 C   0  0  0  0  0  0  0  0  0  0  0  0
   -4.3046    0.7237   -1.0107 C   0  0  0  0  0  0  0  0  0  0  0  0
   -4.2653   -0.2550    0.0656 N   0  0  0  0  0  0  0  0  0  0  0  0
   -3.0542   -0.8235    0.6032 C   0  0  0  0  0  0  0  0  0  0  0  0
   -3.1266   -1.5944    1.5998 O   0  0  0  0  0  0  0  0  0  0  0  0
   -1.6965   -0.4728    0.0214 C   0  0  2  0  0  0  0  0  0  0  0  0
   -0.5953   -1.4726    0.3417 C   0  0  0  0  0  0  0  0  0  0  0  0
    0.6667   -0.7628    0.1122 N   0  0  0  0  0  0  0  0  0  0  0  0
    1.7633   -1.3327    0.9178 C   0  0  0  0  0  0  0  0  0  0  0  0
    3.0886   -0.7843    0.4587 C   0  0  0  0  0  0  0  0  0  0  0  0
    3.7889    0.1430    1.2428 C   0  0  0  0  0  0  0  0  0  0  0  0
    5.0055    0.6678    0.7983 C   0  0  0  0  0  0  0  0  0  0  0  0
    5.5469    0.2774   -0.4410 C   0  0  0  0  0  0  0  0  0  0  0  0
    6.8421    0.8498   -0.8956 C   0  0  0  0  0  0  0  0  0  0  0  0
    7.5674    0.3836   -2.0002 C   0  0  0  0  0  0  0  0  0  0  0  0
    8.9198    1.3559   -2.0540 S   0  0  0  0  0  0  0  0  0  0  0  0
    8.5879    2.3090   -0.7418 N   0  0  0  0  0  0  0  0  0  0  0  0
    7.4301    1.8976   -0.2348 N   0  0  0  0  0  0  0  0  0  0  0  0
    4.8316   -0.6465   -1.2283 C   0  0  0  0  0  0  0  0  0  0  0  0
    3.6146   -1.1694   -0.7818 C   0  0  0  0  0  0  0  0  0  0  0  0
    0.4091    0.6586    0.4137 C   0  0  0  0  0  0  0  0  0  0  0  0
   -1.1097    0.8634    0.4933 C   0  0  2  0  0  0  0  0  0  0  0  0
   -1.4987    1.2190    1.8641 N   0  0  0  0  0  0  0  0  0  0  0  0
   -5.5663   -0.3898    1.7334 H   0  0  0  0  0  0  0  0  0  0  0  0
   -7.5148    0.1140   -0.2588 H   0  0  0  0  0  0  0  0  0  0  0  0
   -6.6395    1.3709    0.6956 H   0  0  0  0  0  0  0  0  0  0  0  0
   -5.9602    2.0956   -1.4263 H   0  0  0  0  0  0  0  0  0  0  0  0
   -6.1325    0.4373   -2.1384 H   0  0  0  0  0  0  0  0  0  0  0  0
   -3.7823    1.6512   -0.6939 H   0  0  0  0  0  0  0  0  0  0  0  0
   -3.8376    0.3139   -1.9316 H   0  0  0  0  0  0  0  0  0  0  0  0
   -1.7851   -0.4403   -1.0869 H   0  0  0  0  0  0  0  0  0  0  0  0
   -0.6704   -1.8110    1.4014 H   0  0  0  0  0  0  0  0  0  0  0  0
   -0.6623   -2.3572   -0.3281 H   0  0  0  0  0  0  0  0  0  0  0  0
    1.7880   -2.4381    0.7880 H   0  0  0  0  0  0  0  0  0  0  0  0
    1.6030   -1.1407    2.0037 H   0  0  0  0  0  0  0  0  0  0  0  0
    3.3933    0.4628    2.1989 H   0  0  0  0  0  0  0  0  0  0  0  0
    5.5236    1.3780    1.4301 H   0  0  0  0  0  0  0  0  0  0  0  0
    7.3333   -0.4313   -2.6702 H   0  0  0  0  0  0  0  0  0  0  0  0
    5.1957   -0.9606   -2.1959 H   0  0  0  0  0  0  0  0  0  0  0  0
    3.0776   -1.8725   -1.4068 H   0  0  0  0  0  0  0  0  0  0  0  0
    0.8254    1.2736   -0.4131 H   0  0  0  0  0  0  0  0  0  0  0  0
    0.9022    0.9923    1.3556 H   0  0  0  0  0  0  0  0  0  0  0  0
   -1.4154    1.6833   -0.1941 H   0  0  0  0  0  0  0  0  0  0  0  0
   -1.3567    0.4003    2.5000 H   0  0  0  0  0  0  0  0  0  0  0  0
   -2.5137    1.4703    1.8769 H   0  0  0  0  0  0  0  0  0  0  0  0
  1  2  3  0
  2  3  1  0
  3  4  1  0
  4  5  1  0
  5  6  1  0
  6  7  1  0
  7  8  1  0
  8  9  2  0
  8 10  1  0
 10 11  1  0
 11 12  1  0
 12 13  1  0
 13 14  1  0
 14 15  2  0
 15 16  1  0
 16 17  2  0
 17 18  1  0
 18 19  2  0
 19 20  1  0
 20 21  1  0
 21 22  2  0
 17 23  1  0
 23 24  2  0
 12 25  1  0
 25 26  1  0
 26 27  1  0
  7  3  1  0
 26 10  1  0
 24 14  1  0
 22 18  1  0
  3 28  1  1
  4 29  1  0
  4 30  1  0
  5 31  1  0
  5 32  1  0
  6 33  1  0
  6 34  1  0
 10 35  1  6
 11 36  1  0
 11 37  1  0
 13 38  1  0
 13 39  1  0
 15 40  1  0
 16 41  1  0
 19 42  1  0
 23 43  1  0
 24 44  1  0
 25 45  1  0
 25 46  1  0
 26 47  1  6
 27 48  1  0
 27 49  1  0
M  END
$$$$
