
     RDKit          3D

 58 62  0  0  0  0  0  0  0  0999 V2000
   -3.3596    4.4401    0.1109 C   0  0  0  0  0  0  0  0  0  0  0  0
   -2.6870    3.2256    0.5709 C   0  0  0  0  0  0  0  0  0  0  0  0
   -2.1332    2.2236    0.9471 C   0  0  0  0  0  0  0  0  0  0  0  0
   -1.4614    1.0012    1.3967 C   0  0  0  0  0  0  0  0  0  0  0  0
   -1.1226    0.1656    0.2426 N   0  0  0  0  0  0  0  0  0  0  0  0
   -1.8555   -0.8730   -0.2393 C   0  0  0  0  0  0  0  0  0  0  0  0
   -3.0882   -1.3126    0.3447 N   0  0  0  0  0  0  0  0  0  0  0  0
   -4.3520   -0.6772   -0.0391 C   0  0  0  0  0  0  0  0  0  0  0  0
   -5.1976   -1.6073   -0.9158 C   0  0  0  0  0  0  0  0  0  0  0  0
   -5.3768   -3.0041   -0.3076 C   0  0  0  0  0  0  0  0  0  0  0  0
   -4.1151   -3.7538   -0.4073 N   0  0  0  0  0  0  0  0  0  0  0  0
   -3.3241   -3.7408    0.8341 C   0  0  0  0  0  0  0  0  0  0  0  0
   -3.0778   -2.3300    1.3985 C   0  0  0  0  0  0  0  0  0  0  0  0
   -1.2886   -1.3911   -1.3988 C   0  0  0  0  0  0  0  0  0  0  0  0
   -1.7830   -2.4580   -2.2266 C   0  0  0  0  0  0  0  0  0  0  0  0
   -2.1787   -3.3155   -2.8951 N   0  0  0  0  0  0  0  0  0  0  0  0
   -0.1737   -0.6187   -1.6197 C   0  0  0  0  0  0  0  0  0  0  0  0
    0.7204   -0.6806   -2.6313 N   0  0  0  0  0  0  0  0  0  0  0  0
    1.7394    0.2262   -2.6570 C   0  0  0  0  0  0  0  0  0  0  0  0
    1.8472    1.2001   -1.6871 N   0  0  0  0  0  0  0  0  0  0  0  0
    2.9783    2.1381   -1.7437 C   0  0  0  0  0  0  0  0  0  0  0  0
    4.1170    1.6150   -0.9261 C   0  0  0  0  0  0  0  0  0  0  0  0
    5.0155    0.7578   -1.4821 N   0  0  0  0  0  0  0  0  0  0  0  0
    6.0343    0.2339   -0.7521 C   0  0  0  0  0  0  0  0  0  0  0  0
    6.1635    0.5670    0.5995 C   0  0  0  0  0  0  0  0  0  0  0  0
    7.1965    0.0487    1.3937 C   0  0  0  0  0  0  0  0  0  0  0  0
    7.2824    0.4069    2.7434 C   0  0  0  0  0  0  0  0  0  0  0  0
    6.3409    1.2789    3.3018 C   0  0  0  0  0  0  0  0  0  0  0  0
    5.3084    1.7984    2.5136 C   0  0  0  0  0  0  0  0  0  0  0  0
    5.2164    1.4463    1.1623 C   0  0  0  0  0  0  0  0  0  0  0  0
    4.2164    1.9446    0.3899 N   0  0  0  0  0  0  0  0  0  0  0  0
    0.9354    1.2567   -0.6554 C   0  0  0  0  0  0  0  0  0  0  0  0
    1.0276    2.1377    0.2422 O   0  0  0  0  0  0  0  0  0  0  0  0
   -0.0956    0.3145   -0.6290 C   0  0  0  0  0  0  0  0  0  0  0  0
   -4.2918    4.1658   -0.4245 H   0  0  0  0  0  0  0  0  0  0  0  0
   -3.6083    5.0784    0.9835 H   0  0  0  0  0  0  0  0  0  0  0  0
   -2.6890    4.9966   -0.5756 H   0  0  0  0  0  0  0  0  0  0  0  0
   -2.1377    0.4539    2.0863 H   0  0  0  0  0  0  0  0  0  0  0  0
   -0.5480    1.2604    1.9697 H   0  0  0  0  0  0  0  0  0  0  0  0
   -4.1566    0.2645   -0.5982 H   0  0  0  0  0  0  0  0  0  0  0  0
   -4.9246   -0.3993    0.8724 H   0  0  0  0  0  0  0  0  0  0  0  0
   -4.7275   -1.6981   -1.9193 H   0  0  0  0  0  0  0  0  0  0  0  0
   -6.1982   -1.1441   -1.0566 H   0  0  0  0  0  0  0  0  0  0  0  0
   -5.7502   -2.9411    0.7396 H   0  0  0  0  0  0  0  0  0  0  0  0
   -6.1615   -3.5289   -0.8972 H   0  0  0  0  0  0  0  0  0  0  0  0
   -4.3395   -4.7536   -0.6230 H   0  0  0  0  0  0  0  0  0  0  0  0
   -2.3379   -4.2051    0.6165 H   0  0  0  0  0  0  0  0  0  0  0  0
   -3.8189   -4.3675    1.6098 H   0  0  0  0  0  0  0  0  0  0  0  0
   -3.8636   -2.0969    2.1498 H   0  0  0  0  0  0  0  0  0  0  0  0
   -2.1089   -2.3087    1.9448 H   0  0  0  0  0  0  0  0  0  0  0  0
    2.4646    0.1691   -3.4594 H   0  0  0  0  0  0  0  0  0  0  0  0
    2.6751    3.1420   -1.3733 H   0  0  0  0  0  0  0  0  0  0  0  0
    3.3133    2.2869   -2.7943 H   0  0  0  0  0  0  0  0  0  0  0  0
    6.7350   -0.4421   -1.2259 H   0  0  0  0  0  0  0  0  0  0  0  0
    7.9307   -0.6283    0.9738 H   0  0  0  0  0  0  0  0  0  0  0  0
    8.0789    0.0077    3.3579 H   0  0  0  0  0  0  0  0  0  0  0  0
    6.4117    1.5519    4.3467 H   0  0  0  0  0  0  0  0  0  0  0  0
    4.5836    2.4722    2.9538 H   0  0  0  0  0  0  0  0  0  0  0  0
  1  2  1  0
  2  3  3  0
  3  4  1  0
  4  5  1  0
  5  6  1  0
  6  7  1  0
  7  8  1  0
  8  9  1  0
  9 10  1  0
 10 11  1  0
 11 12  1  0
 12 13  1  0
  6 14  2  0
 14 15  1  0
 15 16  3  0
 14 17  1  0
 17 18  1  0
 18 19  2  0
 19 20  1  0
 20 21  1  0
 21 22  1  0
 22 23  2  0
 23 24  1  0
 24 25  2  0
 25 26  1  0
 26 27  2  0
 27 28  1  0
 28 29  2  0
 29 30  1  0
 30 31  2  0
 20 32  1  0
 32 33  2  0
 32 34  1  0
 34  5  1  0
 13  7  1  0
 34 17  2  0
 31 22  1  0
 30 25  1  0
  1 35  1  0
  1 36  1  0
  1 37  1  0
  4 38  1  0
  4 39  1  0
  8 40  1  0
  8 41  1  0
  9 42  1  0
  9 43  1  0
 10 44  1  0
 10 45  1  0
 11 46  1  0
 12 47  1  0
 12 48  1  0
 13 49  1  0
 13 50  1  0
 19 51  1  0
 21 52  1  0
 21 53  1  0
 24 54  1  0
 26 55  1  0
 27 56  1  0
 28 57  1  0
 29 58  1  0
M  END
$$$$
