
     RDKit          3D

 37 38  0  0  0  0  0  0  0  0999 V2000
   -3.0603   -0.7374   -1.5090 C   0  0  0  0  0  0  0  0  0  0  0  0
   -3.6029   -0.5636   -0.0856 C   0  0  0  0  0  0  0  0  0  0  0  0
   -2.6606    0.1723    0.9085 C   0  0  2  0  0  0  0  0  0  0  0  0
   -1.9767    1.4017    0.2878 C   0  0  0  0  0  0  0  0  0  0  0  0
   -1.6809   -0.7821    1.6582 C   0  0  2  0  0  0  0  0  0  0  0  0
   -0.9825   -0.0786    2.7363 N   0  0  0  0  0  0  0  0  0  0  0  0
   -0.7010   -1.4880    0.7407 C   0  0  0  0  0  0  0  0  0  0  0  0
   -0.9734   -2.6644    0.3761 O   0  0  0  0  0  0  0  0  0  0  0  0
    0.4858   -0.8564    0.2217 N   0  0  0  0  0  0  0  0  0  0  0  0
    1.1239   -1.2971   -1.0219 C   0  0  0  0  0  0  0  0  0  0  0  0
    2.3587   -0.4804   -1.0785 C   0  0  0  0  0  0  0  0  0  0  0  0
    3.3400   -0.4771   -2.0707 C   0  0  0  0  0  0  0  0  0  0  0  0
    4.4408    0.3820   -1.9222 C   0  0  0  0  0  0  0  0  0  0  0  0
    4.5423    1.2172   -0.7918 C   0  0  0  0  0  0  0  0  0  0  0  0
    6.1994    2.5033   -0.5786 I   0  0  0  0  0  0  0  0  0  0  0  0
    3.5417    1.1952    0.1944 C   0  0  0  0  0  0  0  0  0  0  0  0
    2.4570    0.3335    0.0244 C   0  0  0  0  0  0  0  0  0  0  0  0
    1.2962    0.1436    0.9256 C   0  0  0  0  0  0  0  0  0  0  0  0
   -2.9607    0.2463   -2.0135 H   0  0  0  0  0  0  0  0  0  0  0  0
   -3.7742   -1.3496   -2.0992 H   0  0  0  0  0  0  0  0  0  0  0  0
   -2.0814   -1.2512   -1.5164 H   0  0  0  0  0  0  0  0  0  0  0  0
   -4.5521    0.0112   -0.1623 H   0  0  0  0  0  0  0  0  0  0  0  0
   -3.8724   -1.5626    0.3206 H   0  0  0  0  0  0  0  0  0  0  0  0
   -3.3373    0.5771    1.6951 H   0  0  0  0  0  0  0  0  0  0  0  0
   -1.2302    1.1061   -0.4775 H   0  0  0  0  0  0  0  0  0  0  0  0
   -1.4722    2.0000    1.0749 H   0  0  0  0  0  0  0  0  0  0  0  0
   -2.7362    2.0546   -0.1927 H   0  0  0  0  0  0  0  0  0  0  0  0
   -2.3073   -1.5713    2.1368 H   0  0  0  0  0  0  0  0  0  0  0  0
   -0.4365   -0.7815    3.2866 H   0  0  0  0  0  0  0  0  0  0  0  0
   -1.6933    0.3108    3.3976 H   0  0  0  0  0  0  0  0  0  0  0  0
    0.4692   -1.0768   -1.8915 H   0  0  0  0  0  0  0  0  0  0  0  0
    1.3778   -2.3775   -0.9710 H   0  0  0  0  0  0  0  0  0  0  0  0
    3.2555   -1.1220   -2.9358 H   0  0  0  0  0  0  0  0  0  0  0  0
    5.2124    0.3998   -2.6808 H   0  0  0  0  0  0  0  0  0  0  0  0
    3.6083    1.8316    1.0672 H   0  0  0  0  0  0  0  0  0  0  0  0
    1.6366   -0.2514    1.9061 H   0  0  0  0  0  0  0  0  0  0  0  0
    0.7465    1.0983    1.0404 H   0  0  0  0  0  0  0  0  0  0  0  0
  1  2  1  0
  2  3  1  0
  3  4  1  0
  3  5  1  0
  5  6  1  0
  5  7  1  0
  7  8  2  0
  7  9  1  0
  9 10  1  0
 10 11  1  0
 11 12  2  0
 12 13  1  0
 13 14  2  0
 14 15  1  0
 14 16  1  0
 16 17  2  0
 17 18  1  0
 18  9  1  0
 17 11  1  0
  1 19  1  0
  1 20  1  0
  1 21  1  0
  2 22  1  0
  2 23  1  0
  3 24  1  1
  4 25  1  0
  4 26  1  0
  4 27  1  0
  5 28  1  1
  6 29  1  0
  6 30  1  0
 10 31  1  0
 10 32  1  0
 12 33  1  0
 13 34  1  0
 16 35  1  0
 18 36  1  0
 18 37  1  0
M  END
$$$$
