
     RDKit          3D

 76 79  0  0  0  0  0  0  0  0999 V2000
   -4.9212    2.8180   -3.2910 C   0  0  0  0  0  0  0  0  0  0  0  0
   -4.9798    1.4669   -2.7341 C   0  0  0  0  0  0  0  0  0  0  0  0
   -5.0275    0.3547   -2.2725 C   0  0  0  0  0  0  0  0  0  0  0  0
   -5.0836   -0.9951   -1.7043 C   0  0  0  0  0  0  0  0  0  0  0  0
   -4.5911   -0.9805   -0.3248 N   0  0  0  0  0  0  0  0  0  0  0  0
   -5.3161   -0.9946    0.8284 C   0  0  0  0  0  0  0  0  0  0  0  0
   -6.7501   -0.9408    0.8826 N   0  0  0  0  0  0  0  0  0  0  0  0
   -7.4877    0.1284    0.1984 C   0  0  0  0  0  0  0  0  0  0  0  0
   -8.5885    0.7260    1.1034 C   0  0  0  0  0  0  0  0  0  0  0  0
   -9.0491   -0.1841    2.1701 N   0  0  0  0  0  0  0  0  0  0  0  0
   -8.9457   -1.5931    1.7840 C   0  0  0  0  0  0  0  0  0  0  0  0
   -7.4695   -1.9616    1.6504 C   0  0  0  0  0  0  0  0  0  0  0  0
   -4.5545   -1.0556    1.9509 N   0  0  0  0  0  0  0  0  0  0  0  0
   -3.3014   -1.0621    1.4577 C   0  0  0  0  0  0  0  0  0  0  0  0
   -3.3137   -1.0106    0.1043 C   0  0  0  0  0  0  0  0  0  0  0  0
   -2.1176   -0.9756   -0.6054 C   0  0  0  0  0  0  0  0  0  0  0  0
   -2.1197   -0.8986   -1.8644 O   0  0  0  0  0  0  0  0  0  0  0  0
   -0.9365   -1.0080    0.1020 N   0  0  0  0  0  0  0  0  0  0  0  0
    0.3507   -0.9362   -0.6166 C   0  0  0  0  0  0  0  0  0  0  0  0
    0.7759    0.5268   -0.7974 C   0  0  0  0  0  0  0  0  0  0  0  0
    2.1043    0.6530   -1.5613 C   0  0  0  0  0  0  0  0  0  0  0  0
    3.2127   -0.0535   -0.8787 N   0  0  0  0  0  0  0  0  0  0  0  0
    4.3876   -0.2159   -1.7767 C   0  0  0  0  0  0  0  0  0  0  0  0
    5.4374    0.8874   -1.5784 C   0  0  0  0  0  0  0  0  0  0  0  0
    5.9775    0.9017   -0.1276 C   0  0  0  0  0  0  0  0  0  0  0  0
    7.3087    0.2079   -0.0268 C   0  0  0  0  0  0  0  0  0  0  0  0
    7.4338   -0.9824   -0.4277 O   0  0  0  0  0  0  0  0  0  0  0  0
    8.3936    0.8871    0.5396 O   0  0  0  0  0  0  0  0  0  0  0  0
    9.7063    0.3343    0.6365 C   0  0  0  0  0  0  0  0  0  0  0  0
   10.5112    1.1463    1.6491 C   0  0  0  0  0  0  0  0  0  0  0  0
   10.3913    0.3553   -0.7330 C   0  0  0  0  0  0  0  0  0  0  0  0
    4.9764    0.2872    0.8735 C   0  0  0  0  0  0  0  0  0  0  0  0
    3.5358    0.5704    0.4333 C   0  0  0  0  0  0  0  0  0  0  0  0
   -0.9544   -1.0421    1.4873 C   0  0  0  0  0  0  0  0  0  0  0  0
    0.1336   -1.0161    2.1298 O   0  0  0  0  0  0  0  0  0  0  0  0
   -2.1465   -1.0951    2.1759 N   0  0  0  0  0  0  0  0  0  0  0  0
   -2.1759   -1.1014    3.6446 C   0  0  0  0  0  0  0  0  0  0  0  0
   -5.6264    3.4750   -2.7416 H   0  0  0  0  0  0  0  0  0  0  0  0
   -3.8903    3.2152   -3.1894 H   0  0  0  0  0  0  0  0  0  0  0  0
   -5.2024    2.7885   -4.3638 H   0  0  0  0  0  0  0  0  0  0  0  0
   -4.4720   -1.6839   -2.3226 H   0  0  0  0  0  0  0  0  0  0  0  0
   -6.1255   -1.3711   -1.7434 H   0  0  0  0  0  0  0  0  0  0  0  0
   -6.7992    0.9413   -0.1196 H   0  0  0  0  0  0  0  0  0  0  0  0
   -7.9633   -0.2929   -0.7131 H   0  0  0  0  0  0  0  0  0  0  0  0
   -8.1921    1.6445    1.5866 H   0  0  0  0  0  0  0  0  0  0  0  0
   -9.4481    1.0355    0.4669 H   0  0  0  0  0  0  0  0  0  0  0  0
  -10.0544    0.0265    2.3729 H   0  0  0  0  0  0  0  0  0  0  0  0
   -9.4115   -2.2301    2.5671 H   0  0  0  0  0  0  0  0  0  0  0  0
   -9.4818   -1.7765    0.8252 H   0  0  0  0  0  0  0  0  0  0  0  0
   -7.0303   -2.0359    2.6694 H   0  0  0  0  0  0  0  0  0  0  0  0
   -7.3701   -2.9478    1.1482 H   0  0  0  0  0  0  0  0  0  0  0  0
    1.1345   -1.4980   -0.0634 H   0  0  0  0  0  0  0  0  0  0  0  0
    0.2735   -1.4307   -1.6101 H   0  0  0  0  0  0  0  0  0  0  0  0
    0.8515    1.0247    0.1923 H   0  0  0  0  0  0  0  0  0  0  0  0
   -0.0107    1.0618   -1.3726 H   0  0  0  0  0  0  0  0  0  0  0  0
    1.9370    0.2227   -2.5739 H   0  0  0  0  0  0  0  0  0  0  0  0
    2.3530    1.7291   -1.6990 H   0  0  0  0  0  0  0  0  0  0  0  0
    4.8570   -1.2013   -1.5682 H   0  0  0  0  0  0  0  0  0  0  0  0
    4.0930   -0.2465   -2.8489 H   0  0  0  0  0  0  0  0  0  0  0  0
    6.2620    0.7563   -2.3137 H   0  0  0  0  0  0  0  0  0  0  0  0
    4.9605    1.8668   -1.8028 H   0  0  0  0  0  0  0  0  0  0  0  0
    6.1315    1.9672    0.1558 H   0  0  0  0  0  0  0  0  0  0  0  0
    9.6472   -0.7148    1.0032 H   0  0  0  0  0  0  0  0  0  0  0  0
   11.5313    0.7208    1.7620 H   0  0  0  0  0  0  0  0  0  0  0  0
   10.5918    2.2052    1.3222 H   0  0  0  0  0  0  0  0  0  0  0  0
   10.0068    1.1167    2.6382 H   0  0  0  0  0  0  0  0  0  0  0  0
    9.8250   -0.2692   -1.4549 H   0  0  0  0  0  0  0  0  0  0  0  0
   11.4212   -0.0536   -0.6545 H   0  0  0  0  0  0  0  0  0  0  0  0
   10.4412    1.3939   -1.1245 H   0  0  0  0  0  0  0  0  0  0  0  0
    5.1491    0.7159    1.8849 H   0  0  0  0  0  0  0  0  0  0  0  0
    5.1098   -0.8154    0.9467 H   0  0  0  0  0  0  0  0  0  0  0  0
    3.3892    1.6745    0.4054 H   0  0  0  0  0  0  0  0  0  0  0  0
    2.8527    0.1570    1.2058 H   0  0  0  0  0  0  0  0  0  0  0  0
   -1.3497   -1.7232    4.0508 H   0  0  0  0  0  0  0  0  0  0  0  0
   -2.0724   -0.0627    4.0229 H   0  0  0  0  0  0  0  0  0  0  0  0
   -3.1248   -1.5336    4.0281 H   0  0  0  0  0  0  0  0  0  0  0  0
  1  2  1  0
  2  3  3  0
  3  4  1  0
  4  5  1  0
  5  6  1  0
  6  7  1  0
  7  8  1  0
  8  9  1  0
  9 10  1  0
 10 11  1  0
 11 12  1  0
  6 13  2  0
 13 14  1  0
 14 15  2  0
 15 16  1  0
 16 17  2  0
 16 18  1  0
 18 19  1  0
 19 20  1  0
 20 21  1  0
 21 22  1  0
 22 23  1  0
 23 24  1  0
 24 25  1  0
 25 26  1  0
 26 27  2  0
 26 28  1  0
 28 29  1  0
 29 30  1  0
 29 31  1  0
 25 32  1  0
 32 33  1  0
 18 34  1  0
 34 35  2  0
 34 36  1  0
 36 37  1  0
 15  5  1  0
 33 22  1  0
 12  7  1  0
 36 14  1  0
  1 38  1  0
  1 39  1  0
  1 40  1  0
  4 41  1  0
  4 42  1  0
  8 43  1  0
  8 44  1  0
  9 45  1  0
  9 46  1  0
 10 47  1  0
 11 48  1  0
 11 49  1  0
 12 50  1  0
 12 51  1  0
 19 52  1  0
 19 53  1  0
 20 54  1  0
 20 55  1  0
 21 56  1  0
 21 57  1  0
 23 58  1  0
 23 59  1  0
 24 60  1  0
 24 61  1  0
 25 62  1  0
 29 63  1  0
 30 64  1  0
 30 65  1  0
 30 66  1  0
 31 67  1  0
 31 68  1  0
 31 69  1  0
 32 70  1  0
 32 71  1  0
 33 72  1  0
 33 73  1  0
 37 74  1  0
 37 75  1  0
 37 76  1  0
M  END
$$$$
