
     RDKit          3D

 54 57  0  0  0  0  0  0  0  0999 V2000
   -4.6873    3.8144    1.0305 C   0  0  0  0  0  0  0  0  0  0  0  0
   -4.1370    2.5338    0.6045 N   0  0  0  0  0  0  0  0  0  0  0  0
   -4.8641    1.5517    0.0913 N   0  0  0  0  0  0  0  0  0  0  0  0
   -4.0416    0.5036   -0.1489 C   0  0  0  0  0  0  0  0  0  0  0  0
   -4.5196   -0.7908   -0.6876 C   0  0  0  0  0  0  0  0  0  0  0  0
   -5.8426   -1.1973   -0.4366 C   0  0  0  0  0  0  0  0  0  0  0  0
   -6.3186   -2.4129   -0.9372 C   0  0  0  0  0  0  0  0  0  0  0  0
   -5.4836   -3.2304   -1.7021 C   0  0  0  0  0  0  0  0  0  0  0  0
   -5.9471   -4.4080   -2.1887 F   0  0  0  0  0  0  0  0  0  0  0  0
   -4.1735   -2.8292   -1.9731 C   0  0  0  0  0  0  0  0  0  0  0  0
   -3.6930   -1.6144   -1.4738 C   0  0  0  0  0  0  0  0  0  0  0  0
   -2.7541    0.8464    0.2546 C   0  0  0  0  0  0  0  0  0  0  0  0
   -2.8625    2.1205    0.7298 C   0  0  0  0  0  0  0  0  0  0  0  0
   -1.7079    2.8702    1.2995 C   0  0  0  0  0  0  0  0  0  0  0  0
   -0.7575    1.8748    1.9818 C   0  0  0  0  0  0  0  0  0  0  0  0
   -0.4427    0.7114    1.1195 N   0  0  0  0  0  0  0  0  0  0  0  0
    0.8138    0.0284    1.3288 C   0  0  0  0  0  0  0  0  0  0  0  0
    1.4531    0.2234    2.3995 O   0  0  0  0  0  0  0  0  0  0  0  0
    1.3373   -0.9763    0.3230 C   0  0  0  0  0  0  0  0  0  0  0  0
    2.8735   -1.1644    0.3326 C   0  0  2  0  0  0  0  0  0  0  0  0
    3.3257   -1.6919    1.6242 N   0  0  0  0  0  0  0  0  0  0  0  0
    3.6008    0.1556   -0.0102 C   0  0  0  0  0  0  0  0  0  0  0  0
    5.0673   -0.0666   -0.2902 C   0  0  0  0  0  0  0  0  0  0  0  0
    5.4719   -0.5486   -1.5470 C   0  0  0  0  0  0  0  0  0  0  0  0
    6.8249   -0.7795   -1.8135 C   0  0  0  0  0  0  0  0  0  0  0  0
    7.2066   -1.2423   -3.0294 F   0  0  0  0  0  0  0  0  0  0  0  0
    7.7838   -0.5364   -0.8268 C   0  0  0  0  0  0  0  0  0  0  0  0
    7.3914   -0.0644    0.4283 C   0  0  0  0  0  0  0  0  0  0  0  0
    6.0394    0.1689    0.7014 C   0  0  0  0  0  0  0  0  0  0  0  0
    5.6811    0.6166    1.9316 F   0  0  0  0  0  0  0  0  0  0  0  0
   -1.4719    0.0709    0.2667 C   0  0  0  0  0  0  0  0  0  0  0  0
   -5.7133    3.9434    0.6253 H   0  0  0  0  0  0  0  0  0  0  0  0
   -4.7287    3.8518    2.1392 H   0  0  0  0  0  0  0  0  0  0  0  0
   -4.0505    4.6433    0.6557 H   0  0  0  0  0  0  0  0  0  0  0  0
   -6.5049   -0.5804    0.1583 H   0  0  0  0  0  0  0  0  0  0  0  0
   -7.3359   -2.7200   -0.7310 H   0  0  0  0  0  0  0  0  0  0  0  0
   -3.5305   -3.4552   -2.5785 H   0  0  0  0  0  0  0  0  0  0  0  0
   -2.6896   -1.3144   -1.7329 H   0  0  0  0  0  0  0  0  0  0  0  0
   -1.1761    3.3949    0.4774 H   0  0  0  0  0  0  0  0  0  0  0  0
   -2.0560    3.6191    2.0421 H   0  0  0  0  0  0  0  0  0  0  0  0
   -1.2207    1.5092    2.9242 H   0  0  0  0  0  0  0  0  0  0  0  0
    0.1730    2.4229    2.2474 H   0  0  0  0  0  0  0  0  0  0  0  0
    0.8459   -1.9541    0.5147 H   0  0  0  0  0  0  0  0  0  0  0  0
    1.0470   -0.6597   -0.7004 H   0  0  0  0  0  0  0  0  0  0  0  0
    3.1105   -1.9114   -0.4602 H   0  0  0  0  0  0  0  0  0  0  0  0
    4.3255   -1.9838    1.5335 H   0  0  0  0  0  0  0  0  0  0  0  0
    2.7966   -2.5712    1.8273 H   0  0  0  0  0  0  0  0  0  0  0  0
    3.4724    0.8903    0.8130 H   0  0  0  0  0  0  0  0  0  0  0  0
    3.1359    0.6108   -0.9124 H   0  0  0  0  0  0  0  0  0  0  0  0
    4.7374   -0.7461   -2.3183 H   0  0  0  0  0  0  0  0  0  0  0  0
    8.8311   -0.7161   -1.0327 H   0  0  0  0  0  0  0  0  0  0  0  0
    8.1368    0.1182    1.1916 H   0  0  0  0  0  0  0  0  0  0  0  0
   -1.6701   -0.9592    0.6329 H   0  0  0  0  0  0  0  0  0  0  0  0
   -1.1018    0.0307   -0.7772 H   0  0  0  0  0  0  0  0  0  0  0  0
  1  2  1  0
  2  3  1  0
  3  4  2  0
  4  5  1  0
  5  6  2  0
  6  7  1  0
  7  8  2  0
  8  9  1  0
  8 10  1  0
 10 11  2  0
  4 12  1  0
 12 13  2  0
 13 14  1  0
 14 15  1  0
 15 16  1  0
 16 17  1  0
 17 18  2  0
 17 19  1  0
 19 20  1  0
 20 21  1  0
 20 22  1  0
 22 23  1  0
 23 24  2  0
 24 25  1  0
 25 26  1  0
 25 27  2  0
 27 28  1  0
 28 29  2  0
 29 30  1  0
 16 31  1  0
 13  2  1  0
 29 23  1  0
 11  5  1  0
 31 12  1  0
  1 32  1  0
  1 33  1  0
  1 34  1  0
  6 35  1  0
  7 36  1  0
 10 37  1  0
 11 38  1  0
 14 39  1  0
 14 40  1  0
 15 41  1  0
 15 42  1  0
 19 43  1  0
 19 44  1  0
 20 45  1  6
 21 46  1  0
 21 47  1  0
 22 48  1  0
 22 49  1  0
 24 50  1  0
 27 51  1  0
 28 52  1  0
 31 53  1  0
 31 54  1  0
M  END
$$$$
