
     RDKit          3D

 70 75  0  0  0  0  0  0  0  0999 V2000
   10.5045    2.2045    3.8017 N   0  0  0  0  0  0  0  0  0  0  0  0
    9.4746    1.8206    3.4394 C   0  0  0  0  0  0  0  0  0  0  0  0
    8.1936    1.3431    2.9888 C   0  0  0  0  0  0  0  0  0  0  0  0
    8.0971    0.6053    1.8024 C   0  0  0  0  0  0  0  0  0  0  0  0
    6.8528    0.1425    1.3635 C   0  0  0  0  0  0  0  0  0  0  0  0
    5.6945    0.4054    2.1130 C   0  0  0  0  0  0  0  0  0  0  0  0
    4.3508   -0.0625    1.6225 C   0  0  0  0  0  0  0  0  0  0  0  0
    3.7140    0.9909    0.7130 C   0  0  0  0  0  0  0  0  0  0  0  0
    2.3809    0.5168    0.2183 C   0  0  0  0  0  0  0  0  0  0  0  0
    1.3377    0.8852    0.8213 O   0  0  0  0  0  0  0  0  0  0  0  0
    2.3125   -0.3836   -0.9027 N   0  0  0  0  0  0  0  0  0  0  0  0
    1.0742   -0.9678   -1.4528 C   0  0  0  0  0  0  0  0  0  0  0  0
    0.3407   -1.8142   -0.3753 C   0  0  0  0  0  0  0  0  0  0  0  0
   -0.9331   -2.4489   -0.9754 C   0  0  0  0  0  0  0  0  0  0  0  0
   -0.5500   -3.3670   -2.1512 C   0  0  0  0  0  0  0  0  0  0  0  0
    0.1646   -2.5367   -3.2338 C   0  0  0  0  0  0  0  0  0  0  0  0
   -0.7764   -1.4235   -3.7346 C   0  0  0  0  0  0  0  0  0  0  0  0
   -1.1754   -0.4767   -2.5699 C   0  0  0  0  0  0  0  0  0  0  0  0
   -2.0753    0.5619   -3.1336 N   0  0  0  0  0  0  0  0  0  0  0  0
   -2.7751    1.4206   -2.1605 C   0  0  0  0  0  0  0  0  0  0  0  0
   -4.1312    0.8526   -1.8402 C   0  0  0  0  0  0  0  0  0  0  0  0
   -4.8209    0.3584   -2.7733 O   0  0  0  0  0  0  0  0  0  0  0  0
   -4.6745    0.9021   -0.5094 N   0  0  0  0  0  0  0  0  0  0  0  0
   -5.9750    0.3269   -0.1591 C   0  0  0  0  0  0  0  0  0  0  0  0
   -6.1162    0.6651    1.2772 C   0  0  0  0  0  0  0  0  0  0  0  0
   -7.1772    0.3575    2.1305 C   0  0  0  0  0  0  0  0  0  0  0  0
   -7.1052    0.7788    3.4683 C   0  0  0  0  0  0  0  0  0  0  0  0
   -5.9826    1.4946    3.9273 C   0  0  0  0  0  0  0  0  0  0  0  0
   -4.9267    1.7928    3.0508 C   0  0  0  0  0  0  0  0  0  0  0  0
   -5.0202    1.3652    1.7254 C   0  0  0  0  0  0  0  0  0  0  0  0
   -4.0353    1.5587    0.6348 C   0  0  0  0  0  0  0  0  0  0  0  0
   -1.8788   -1.3346   -1.4740 C   0  0  0  0  0  0  0  0  0  0  0  0
    0.1270    0.1469   -1.9792 C   0  0  0  0  0  0  0  0  0  0  0  0
    1.4378   -1.9017   -2.6410 C   0  0  0  0  0  0  0  0  0  0  0  0
    5.7950    1.1577    3.2947 C   0  0  0  0  0  0  0  0  0  0  0  0
    7.0399    1.6200    3.7328 C   0  0  0  0  0  0  0  0  0  0  0  0
    8.9823    0.3909    1.2156 H   0  0  0  0  0  0  0  0  0  0  0  0
    6.7913   -0.4190    0.4394 H   0  0  0  0  0  0  0  0  0  0  0  0
    3.6821   -0.2629    2.4889 H   0  0  0  0  0  0  0  0  0  0  0  0
    4.4667   -1.0193    1.0666 H   0  0  0  0  0  0  0  0  0  0  0  0
    4.3773    1.1920   -0.1564 H   0  0  0  0  0  0  0  0  0  0  0  0
    3.5857    1.9434    1.2732 H   0  0  0  0  0  0  0  0  0  0  0  0
    3.2236   -0.6455   -1.3448 H   0  0  0  0  0  0  0  0  0  0  0  0
    1.0157   -2.6124    0.0053 H   0  0  0  0  0  0  0  0  0  0  0  0
    0.0492   -1.1904    0.4948 H   0  0  0  0  0  0  0  0  0  0  0  0
   -1.4494   -3.0486   -0.1943 H   0  0  0  0  0  0  0  0  0  0  0  0
   -1.4615   -3.8428   -2.5756 H   0  0  0  0  0  0  0  0  0  0  0  0
    0.1161   -4.1837   -1.7956 H   0  0  0  0  0  0  0  0  0  0  0  0
    0.4416   -3.1978   -4.0837 H   0  0  0  0  0  0  0  0  0  0  0  0
   -0.2697   -0.8477   -4.5409 H   0  0  0  0  0  0  0  0  0  0  0  0
   -1.6871   -1.8793   -4.1831 H   0  0  0  0  0  0  0  0  0  0  0  0
   -1.5198    1.1774   -3.7742 H   0  0  0  0  0  0  0  0  0  0  0  0
   -2.9397    2.4252   -2.6079 H   0  0  0  0  0  0  0  0  0  0  0  0
   -2.1741    1.5826   -1.2472 H   0  0  0  0  0  0  0  0  0  0  0  0
   -6.7840    0.8036   -0.7527 H   0  0  0  0  0  0  0  0  0  0  0  0
   -5.9628   -0.7746   -0.3030 H   0  0  0  0  0  0  0  0  0  0  0  0
   -8.0364   -0.1932    1.7703 H   0  0  0  0  0  0  0  0  0  0  0  0
   -7.9155    0.5521    4.1489 H   0  0  0  0  0  0  0  0  0  0  0  0
   -5.9331    1.8159    4.9596 H   0  0  0  0  0  0  0  0  0  0  0  0
   -4.0601    2.3414    3.3963 H   0  0  0  0  0  0  0  0  0  0  0  0
   -3.0786    1.0570    0.8916 H   0  0  0  0  0  0  0  0  0  0  0  0
   -3.8867    2.6403    0.4301 H   0  0  0  0  0  0  0  0  0  0  0  0
   -2.1637   -0.7099   -0.6022 H   0  0  0  0  0  0  0  0  0  0  0  0
   -2.8099   -1.7874   -1.8808 H   0  0  0  0  0  0  0  0  0  0  0  0
    0.6516    0.7442   -2.7577 H   0  0  0  0  0  0  0  0  0  0  0  0
   -0.1234    0.8404   -1.1553 H   0  0  0  0  0  0  0  0  0  0  0  0
    1.9690   -1.3264   -3.4318 H   0  0  0  0  0  0  0  0  0  0  0  0
    2.1282   -2.7049   -2.2992 H   0  0  0  0  0  0  0  0  0  0  0  0
    4.9097    1.3870    3.8749 H   0  0  0  0  0  0  0  0  0  0  0  0
    7.1021    2.1955    4.6486 H   0  0  0  0  0  0  0  0  0  0  0  0
  1  2  3  0
  2  3  1  0
  3  4  2  0
  4  5  1  0
  5  6  2  0
  6  7  1  0
  7  8  1  0
  8  9  1  0
  9 10  2  0
  9 11  1  0
 11 12  1  0
 12 13  1  0
 13 14  1  0
 14 15  1  0
 15 16  1  0
 16 17  1  0
 17 18  1  0
 18 19  1  0
 19 20  1  0
 20 21  1  0
 21 22  2  0
 21 23  1  0
 23 24  1  0
 24 25  1  0
 25 26  2  0
 26 27  1  0
 27 28  2  0
 28 29  1  0
 29 30  2  0
 30 31  1  0
 18 32  1  0
 18 33  1  0
 16 34  1  0
  6 35  1  0
 35 36  2  0
 36  3  1  0
 33 12  1  0
 34 12  1  0
 32 14  1  0
 31 23  1  0
 30 25  1  0
  4 37  1  0
  5 38  1  0
  7 39  1  0
  7 40  1  0
  8 41  1  0
  8 42  1  0
 11 43  1  0
 13 44  1  0
 13 45  1  0
 14 46  1  0
 15 47  1  0
 15 48  1  0
 16 49  1  0
 17 50  1  0
 17 51  1  0
 19 52  1  0
 20 53  1  0
 20 54  1  0
 24 55  1  0
 24 56  1  0
 26 57  1  0
 27 58  1  0
 28 59  1  0
 29 60  1  0
 31 61  1  0
 31 62  1  0
 32 63  1  0
 32 64  1  0
 33 65  1  0
 33 66  1  0
 34 67  1  0
 34 68  1  0
 35 69  1  0
 36 70  1  0
M  END
$$$$
