
     RDKit          3D

 55 59  0  0  0  0  0  0  0  0999 V2000
    4.4285    1.4749   -1.8321 C   0  0  0  0  0  0  0  0  0  0  0  0
    3.4732    0.6408   -1.0758 N   0  0  0  0  0  0  0  0  0  0  0  0
    2.1210    0.7439   -1.3453 C   0  0  0  0  0  0  0  0  0  0  0  0
    1.6917    1.5363   -2.2278 O   0  0  0  0  0  0  0  0  0  0  0  0
    1.2229   -0.0445   -0.6215 C   0  0  0  0  0  0  0  0  0  0  0  0
    1.6575   -0.9098    0.3306 C   0  0  0  0  0  0  0  0  0  0  0  0
    0.6216   -1.5733    0.8800 N   0  0  0  0  0  0  0  0  0  0  0  0
   -0.4495   -1.0581    0.2263 C   0  0  0  0  0  0  0  0  0  0  0  0
   -1.7899   -1.5115    0.4690 N   0  0  0  0  0  0  0  0  0  0  0  0
   -2.0318   -2.9481    0.6326 C   0  0  0  0  0  0  0  0  0  0  0  0
   -3.4326   -3.3074    0.1297 C   0  0  0  0  0  0  0  0  0  0  0  0
   -4.4937   -2.4069    0.7725 C   0  0  0  0  0  0  0  0  0  0  0  0
   -4.1832   -0.9219    0.5133 C   0  0  1  0  0  0  0  0  0  0  0  0
   -5.1767   -0.0792    1.1793 N   0  0  0  0  0  0  0  0  0  0  0  0
   -2.7759   -0.5804    1.0291 C   0  0  0  0  0  0  0  0  0  0  0  0
   -0.1216   -0.1227   -0.7046 N   0  0  0  0  0  0  0  0  0  0  0  0
   -1.0171    0.5555   -1.6501 C   0  0  0  0  0  0  0  0  0  0  0  0
   -1.1882    2.0325   -1.3443 C   0  0  0  0  0  0  0  0  0  0  0  0
   -0.8544    2.5656   -0.0807 C   0  0  0  0  0  0  0  0  0  0  0  0
   -1.0397    3.9230    0.1905 C   0  0  0  0  0  0  0  0  0  0  0  0
   -1.5719    4.7660   -0.7843 C   0  0  0  0  0  0  0  0  0  0  0  0
   -1.9285    4.2524   -2.0316 C   0  0  0  0  0  0  0  0  0  0  0  0
   -1.7479    2.8934   -2.3160 C   0  0  0  0  0  0  0  0  0  0  0  0
   -2.2494    2.3035   -3.8980 Cl  0  0  0  0  0  0  0  0  0  0  0  0
    3.0080   -1.0467    0.6294 C   0  0  0  0  0  0  0  0  0  0  0  0
    3.4544   -1.9422    1.6120 C   0  0  0  0  0  0  0  0  0  0  0  0
    4.8156   -2.0547    1.8885 C   0  0  0  0  0  0  0  0  0  0  0  0
    5.7417   -1.2769    1.1887 C   0  0  0  0  0  0  0  0  0  0  0  0
    7.1461   -1.4005    1.4820 C   0  0  0  0  0  0  0  0  0  0  0  0
    8.2748   -1.4998    1.7177 N   0  0  0  0  0  0  0  0  0  0  0  0
    5.3085   -0.3789    0.2039 C   0  0  0  0  0  0  0  0  0  0  0  0
    3.9318   -0.2418   -0.1003 C   0  0  0  0  0  0  0  0  0  0  0  0
    3.9368    2.1356   -2.5754 H   0  0  0  0  0  0  0  0  0  0  0  0
    5.1357    0.8262   -2.3916 H   0  0  0  0  0  0  0  0  0  0  0  0
    4.9895    2.1331   -1.1349 H   0  0  0  0  0  0  0  0  0  0  0  0
   -1.2852   -3.5352    0.0535 H   0  0  0  0  0  0  0  0  0  0  0  0
   -1.9336   -3.2199    1.7063 H   0  0  0  0  0  0  0  0  0  0  0  0
   -3.4683   -3.1911   -0.9759 H   0  0  0  0  0  0  0  0  0  0  0  0
   -3.6513   -4.3695    0.3724 H   0  0  0  0  0  0  0  0  0  0  0  0
   -5.4875   -2.6606    0.3439 H   0  0  0  0  0  0  0  0  0  0  0  0
   -4.5318   -2.6010    1.8675 H   0  0  0  0  0  0  0  0  0  0  0  0
   -4.2190   -0.7320   -0.5843 H   0  0  0  0  0  0  0  0  0  0  0  0
   -6.1148   -0.2884    0.7663 H   0  0  0  0  0  0  0  0  0  0  0  0
   -4.9745    0.9189    0.9393 H   0  0  0  0  0  0  0  0  0  0  0  0
   -2.5324    0.4653    0.7527 H   0  0  0  0  0  0  0  0  0  0  0  0
   -2.7511   -0.6496    2.1389 H   0  0  0  0  0  0  0  0  0  0  0  0
   -2.0162    0.0726   -1.6484 H   0  0  0  0  0  0  0  0  0  0  0  0
   -0.6077    0.4240   -2.6740 H   0  0  0  0  0  0  0  0  0  0  0  0
   -0.4515    1.9393    0.7039 H   0  0  0  0  0  0  0  0  0  0  0  0
   -0.7736    4.3212    1.1612 H   0  0  0  0  0  0  0  0  0  0  0  0
   -1.7159    5.8172   -0.5705 H   0  0  0  0  0  0  0  0  0  0  0  0
   -2.3521    4.9126   -2.7778 H   0  0  0  0  0  0  0  0  0  0  0  0
    2.7525   -2.5539    2.1660 H   0  0  0  0  0  0  0  0  0  0  0  0
    5.1475   -2.7501    2.6503 H   0  0  0  0  0  0  0  0  0  0  0  0
    6.0592    0.2027   -0.3138 H   0  0  0  0  0  0  0  0  0  0  0  0
  1  2  1  0
  2  3  1  0
  3  4  2  0
  3  5  1  0
  5  6  2  0
  6  7  1  0
  7  8  2  0
  8  9  1  0
  9 10  1  0
 10 11  1  0
 11 12  1  0
 12 13  1  0
 13 14  1  0
 13 15  1  0
  8 16  1  0
 16 17  1  0
 17 18  1  0
 18 19  2  0
 19 20  1  0
 20 21  2  0
 21 22  1  0
 22 23  2  0
 23 24  1  0
  6 25  1  0
 25 26  2  0
 26 27  1  0
 27 28  2  0
 28 29  1  0
 29 30  3  0
 28 31  1  0
 31 32  2  0
 32  2  1  0
 16  5  1  0
 23 18  1  0
 32 25  1  0
 15  9  1  0
  1 33  1  0
  1 34  1  0
  1 35  1  0
 10 36  1  0
 10 37  1  0
 11 38  1  0
 11 39  1  0
 12 40  1  0
 12 41  1  0
 13 42  1  6
 14 43  1  0
 14 44  1  0
 15 45  1  0
 15 46  1  0
 17 47  1  0
 17 48  1  0
 19 49  1  0
 20 50  1  0
 21 51  1  0
 22 52  1  0
 26 53  1  0
 27 54  1  0
 31 55  1  0
M  END
$$$$
