
     RDKit          3D

 69 72  0  0  0  0  0  0  0  0999 V2000
   -3.7136    2.2893   -0.2019 N   0  0  0  0  0  0  0  0  0  0  0  0
   -3.9472    1.0244    0.5013 C   0  0  0  0  0  0  0  0  0  0  0  0
   -3.3379   -0.1625   -0.2827 C   0  0  0  0  0  0  0  0  0  0  0  0
   -3.2407   -1.4036    0.5656 C   0  0  0  0  0  0  0  0  0  0  0  0
   -4.1634   -2.2597    0.4959 O   0  0  0  0  0  0  0  0  0  0  0  0
   -2.1465   -1.6143    1.4796 N   0  0  0  0  0  0  0  0  0  0  0  0
   -2.1554   -2.6779    2.4711 C   0  0  0  0  0  0  0  0  0  0  0  0
   -0.8086   -2.5974    3.1793 C   0  0  0  0  0  0  0  0  0  0  0  0
   -0.2470   -1.2186    2.8448 C   0  0  0  0  0  0  0  0  0  0  0  0
   -0.9429   -0.7937    1.5516 C   0  0  1  0  0  0  0  0  0  0  0  0
   -0.0550   -1.0470    0.3611 C   0  0  0  0  0  0  0  0  0  0  0  0
    0.0365   -2.2104   -0.1189 O   0  0  0  0  0  0  0  0  0  0  0  0
    0.7284    0.0224   -0.1854 N   0  0  0  0  0  0  0  0  0  0  0  0
    1.7332   -0.1948   -1.2232 C   0  0  0  0  0  0  0  0  0  0  0  0
    2.8945   -0.9826   -0.6704 C   0  0  0  0  0  0  0  0  0  0  0  0
    3.1403   -2.2852   -1.1361 C   0  0  0  0  0  0  0  0  0  0  0  0
    4.2044   -3.0309   -0.6231 C   0  0  0  0  0  0  0  0  0  0  0  0
    4.5016   -4.6562   -1.2122 Cl  0  0  0  0  0  0  0  0  0  0  0  0
    5.0288   -2.4838    0.3614 C   0  0  0  0  0  0  0  0  0  0  0  0
    4.7930   -1.1921    0.8360 C   0  0  0  0  0  0  0  0  0  0  0  0
    3.7259   -0.4270    0.3243 C   0  0  0  0  0  0  0  0  0  0  0  0
    3.4607    0.8785    0.7758 O   0  0  0  0  0  0  0  0  0  0  0  0
    4.2861    1.6305    1.6652 C   0  0  0  0  0  0  0  0  0  0  0  0
    5.6016    1.9503    1.0218 C   0  0  0  0  0  0  0  0  0  0  0  0
    6.6620    1.8665    1.6987 O   0  0  0  0  0  0  0  0  0  0  0  0
    5.6507    2.3625   -0.3492 N   0  0  0  0  0  0  0  0  0  0  0  0
    6.9185    2.5160   -1.0550 C   0  0  0  0  0  0  0  0  0  0  0  0
    7.5633    1.1881   -1.4167 C   0  0  0  0  0  0  0  0  0  0  0  0
    6.8870    2.0238   -2.4918 C   0  0  0  0  0  0  0  0  0  0  0  0
   -5.4520    0.8495    0.8135 C   0  0  0  0  0  0  0  0  0  0  0  0
   -6.3363    0.8576   -0.4120 C   0  0  0  0  0  0  0  0  0  0  0  0
   -6.7239   -0.3482   -1.0215 C   0  0  0  0  0  0  0  0  0  0  0  0
   -7.5353   -0.3348   -2.1602 C   0  0  0  0  0  0  0  0  0  0  0  0
   -7.9698    0.8800   -2.6966 C   0  0  0  0  0  0  0  0  0  0  0  0
   -7.5960    2.0835   -2.0934 C   0  0  0  0  0  0  0  0  0  0  0  0
   -6.7847    2.0745   -0.9547 C   0  0  0  0  0  0  0  0  0  0  0  0
   -2.6906    2.5056   -0.1647 H   0  0  0  0  0  0  0  0  0  0  0  0
   -3.9629    2.1794   -1.2121 H   0  0  0  0  0  0  0  0  0  0  0  0
   -3.4303    1.0900    1.4849 H   0  0  0  0  0  0  0  0  0  0  0  0
   -3.9382   -0.3750   -1.1924 H   0  0  0  0  0  0  0  0  0  0  0  0
   -2.3264    0.1124   -0.6453 H   0  0  0  0  0  0  0  0  0  0  0  0
   -2.2797   -3.6668    1.9787 H   0  0  0  0  0  0  0  0  0  0  0  0
   -2.9839   -2.5071    3.1924 H   0  0  0  0  0  0  0  0  0  0  0  0
   -0.9172   -2.7353    4.2769 H   0  0  0  0  0  0  0  0  0  0  0  0
   -0.1281   -3.3802    2.7774 H   0  0  0  0  0  0  0  0  0  0  0  0
    0.8625   -1.2412    2.7573 H   0  0  0  0  0  0  0  0  0  0  0  0
   -0.5208   -0.5098    3.6574 H   0  0  0  0  0  0  0  0  0  0  0  0
   -1.2110    0.2825    1.6123 H   0  0  0  0  0  0  0  0  0  0  0  0
    0.6002    0.9900    0.1881 H   0  0  0  0  0  0  0  0  0  0  0  0
    2.1058    0.7869   -1.5881 H   0  0  0  0  0  0  0  0  0  0  0  0
    1.2647   -0.7077   -2.0913 H   0  0  0  0  0  0  0  0  0  0  0  0
    2.5041   -2.7228   -1.8957 H   0  0  0  0  0  0  0  0  0  0  0  0
    5.8527   -3.0603    0.7626 H   0  0  0  0  0  0  0  0  0  0  0  0
    5.4452   -0.8011    1.6038 H   0  0  0  0  0  0  0  0  0  0  0  0
    4.4294    1.0734    2.6162 H   0  0  0  0  0  0  0  0  0  0  0  0
    3.7716    2.5838    1.9050 H   0  0  0  0  0  0  0  0  0  0  0  0
    4.7606    2.5845   -0.8499 H   0  0  0  0  0  0  0  0  0  0  0  0
    7.5981    3.3511   -0.7830 H   0  0  0  0  0  0  0  0  0  0  0  0
    8.6726    1.2122   -1.4569 H   0  0  0  0  0  0  0  0  0  0  0  0
    6.9927    0.2795   -1.1255 H   0  0  0  0  0  0  0  0  0  0  0  0
    5.9169    1.6088   -2.8405 H   0  0  0  0  0  0  0  0  0  0  0  0
    7.5943    2.5457   -3.1700 H   0  0  0  0  0  0  0  0  0  0  0  0
   -5.7698    1.6717    1.4918 H   0  0  0  0  0  0  0  0  0  0  0  0
   -5.6078   -0.0900    1.3867 H   0  0  0  0  0  0  0  0  0  0  0  0
   -6.4003   -1.2977   -0.6163 H   0  0  0  0  0  0  0  0  0  0  0  0
   -7.8281   -1.2667   -2.6262 H   0  0  0  0  0  0  0  0  0  0  0  0
   -8.5979    0.8885   -3.5780 H   0  0  0  0  0  0  0  0  0  0  0  0
   -7.9352    3.0240   -2.5081 H   0  0  0  0  0  0  0  0  0  0  0  0
   -6.5039    3.0151   -0.4973 H   0  0  0  0  0  0  0  0  0  0  0  0
  1  2  1  0
  2  3  1  0
  3  4  1  0
  4  5  2  0
  4  6  1  0
  6  7  1  0
  7  8  1  0
  8  9  1  0
  9 10  1  0
 10 11  1  0
 11 12  2  0
 11 13  1  0
 13 14  1  0
 14 15  1  0
 15 16  2  0
 16 17  1  0
 17 18  1  0
 17 19  2  0
 19 20  1  0
 20 21  2  0
 21 22  1  0
 22 23  1  0
 23 24  1  0
 24 25  2  0
 24 26  1  0
 26 27  1  0
 27 28  1  0
 28 29  1  0
  2 30  1  0
 30 31  1  0
 31 32  2  0
 32 33  1  0
 33 34  2  0
 34 35  1  0
 35 36  2  0
 10  6  1  0
 21 15  1  0
 29 27  1  0
 36 31  1  0
  1 37  1  0
  1 38  1  0
  2 39  1  0
  3 40  1  0
  3 41  1  0
  7 42  1  0
  7 43  1  0
  8 44  1  0
  8 45  1  0
  9 46  1  0
  9 47  1  0
 10 48  1  1
 13 49  1  0
 14 50  1  0
 14 51  1  0
 16 52  1  0
 19 53  1  0
 20 54  1  0
 23 55  1  0
 23 56  1  0
 26 57  1  0
 27 58  1  0
 28 59  1  0
 28 60  1  0
 29 61  1  0
 29 62  1  0
 30 63  1  0
 30 64  1  0
 32 65  1  0
 33 66  1  0
 34 67  1  0
 35 68  1  0
 36 69  1  0
M  END
$$$$
