
     RDKit          3D

 59 61  0  0  0  0  0  0  0  0999 V2000
    0.6878    0.0000    0.0000 Cl  0  0  0  0  0  0  0  0  0  0  0  0
   -4.7006    3.0397   -2.2212 N   0  0  0  0  0  0  0  0  0  0  0  0
   -5.3907    2.2708   -1.6998 C   0  0  0  0  0  0  0  0  0  0  0  0
   -6.2686    1.2918   -1.0363 C   0  0  2  0  0  0  0  0  0  0  0  0
   -7.7023    1.8210   -0.9430 C   0  0  0  0  0  0  0  0  0  0  0  0
   -8.1774    1.4866    0.4676 C   0  0  0  0  0  0  0  0  0  0  0  0
   -6.9160    1.2907    1.2965 C   0  0  0  0  0  0  0  0  0  0  0  0
   -5.8456    1.0600    0.3404 N   0  0  0  0  0  0  0  0  0  0  0  0
   -4.5617    0.5401    0.7422 C   0  0  0  0  0  0  0  0  0  0  0  0
   -4.2674    0.5050    1.9687 O   0  0  0  0  0  0  0  0  0  0  0  0
   -3.5480    0.0827   -0.2753 C   0  0  0  0  0  0  0  0  0  0  0  0
   -2.5540   -0.8094    0.3392 N   0  0  0  0  0  0  0  0  0  0  0  0
   -1.7078   -1.4579   -0.6793 C   0  0  2  0  0  0  0  0  0  0  0  0
   -0.8098   -2.5139   -0.0481 C   0  0  0  0  0  0  0  0  0  0  0  0
    0.3590   -2.6653   -1.0244 C   0  0  2  0  0  0  0  0  0  0  0  0
    1.7134   -2.9475   -0.3578 C   0  0  0  0  0  0  0  0  0  0  0  0
    2.6829   -1.9277   -0.9425 C   0  0  2  0  0  0  0  0  0  0  0  0
    3.6834   -1.5806    0.0153 O   0  0  0  0  0  0  0  0  0  0  0  0
    4.7997   -0.7959   -0.2922 C   0  0  0  0  0  0  0  0  0  0  0  0
    4.9982   -0.4063   -1.4758 O   0  0  0  0  0  0  0  0  0  0  0  0
    5.7371   -0.4820    0.7460 N   0  0  0  0  0  0  0  0  0  0  0  0
    6.8095    0.4665    0.6105 C   0  0  0  0  0  0  0  0  0  0  0  0
    8.0078    0.2543    1.3105 C   0  0  0  0  0  0  0  0  0  0  0  0
    9.0572    1.1733    1.2130 C   0  0  0  0  0  0  0  0  0  0  0  0
    8.9130    2.3198    0.4279 C   0  0  0  0  0  0  0  0  0  0  0  0
    7.7162    2.5530   -0.2541 C   0  0  0  0  0  0  0  0  0  0  0  0
    6.6645    1.6358   -0.1600 C   0  0  0  0  0  0  0  0  0  0  0  0
    1.8202   -0.7281   -1.3114 C   0  0  0  0  0  0  0  0  0  0  0  0
    0.4841   -1.3286   -1.7514 C   0  0  2  0  0  0  0  0  0  0  0  0
   -0.7460   -0.4891   -1.3769 C   0  0  0  0  0  0  0  0  0  0  0  0
   -0.6878    0.0000    0.0000 H   0  0  0  0  0  0  0  0  0  0  0  0
   -6.2566    0.3338   -1.5992 H   0  0  0  0  0  0  0  0  0  0  0  0
   -8.3556    1.3450   -1.7065 H   0  0  0  0  0  0  0  0  0  0  0  0
   -7.7431    2.9259   -1.0793 H   0  0  0  0  0  0  0  0  0  0  0  0
   -8.8143    2.2964    0.8853 H   0  0  0  0  0  0  0  0  0  0  0  0
   -8.7598    0.5390    0.4464 H   0  0  0  0  0  0  0  0  0  0  0  0
   -7.0320    0.4159    1.9731 H   0  0  0  0  0  0  0  0  0  0  0  0
   -6.6918    2.2021    1.8920 H   0  0  0  0  0  0  0  0  0  0  0  0
   -3.0456    0.9772   -0.7035 H   0  0  0  0  0  0  0  0  0  0  0  0
   -4.0812   -0.4546   -1.0885 H   0  0  0  0  0  0  0  0  0  0  0  0
   -1.9504   -0.2454    0.9843 H   0  0  0  0  0  0  0  0  0  0  0  0
   -2.3423   -1.9633   -1.4442 H   0  0  0  0  0  0  0  0  0  0  0  0
   -0.4598   -2.1558    0.9455 H   0  0  0  0  0  0  0  0  0  0  0  0
   -1.3507   -3.4760    0.0838 H   0  0  0  0  0  0  0  0  0  0  0  0
    0.1234   -3.4666   -1.7616 H   0  0  0  0  0  0  0  0  0  0  0  0
    1.6638   -2.8287    0.7468 H   0  0  0  0  0  0  0  0  0  0  0  0
    2.0553   -3.9818   -0.5799 H   0  0  0  0  0  0  0  0  0  0  0  0
    3.1546   -2.3536   -1.8576 H   0  0  0  0  0  0  0  0  0  0  0  0
    5.6783   -1.0404    1.6273 H   0  0  0  0  0  0  0  0  0  0  0  0
    8.1310   -0.6295    1.9240 H   0  0  0  0  0  0  0  0  0  0  0  0
    9.9815    0.9975    1.7482 H   0  0  0  0  0  0  0  0  0  0  0  0
    9.7251    3.0317    0.3551 H   0  0  0  0  0  0  0  0  0  0  0  0
    7.5995    3.4498   -0.8487 H   0  0  0  0  0  0  0  0  0  0  0  0
    5.7343    1.8556   -0.6663 H   0  0  0  0  0  0  0  0  0  0  0  0
    1.6999   -0.0813   -0.4140 H   0  0  0  0  0  0  0  0  0  0  0  0
    2.2813   -0.1346   -2.1300 H   0  0  0  0  0  0  0  0  0  0  0  0
    0.5032   -1.5064   -2.8511 H   0  0  0  0  0  0  0  0  0  0  0  0
   -1.2200   -0.0619   -2.2873 H   0  0  0  0  0  0  0  0  0  0  0  0
   -0.4781    0.3513   -0.7006 H   0  0  0  0  0  0  0  0  0  0  0  0
  2  3  3  0
  3  4  1  0
  4  5  1  0
  5  6  1  0
  6  7  1  0
  7  8  1  0
  8  9  1  0
  9 10  2  0
  9 11  1  0
 11 12  1  0
 12 13  1  0
 13 14  1  0
 14 15  1  0
 15 16  1  0
 16 17  1  0
 17 18  1  0
 18 19  1  0
 19 20  2  0
 19 21  1  0
 21 22  1  0
 22 23  2  0
 23 24  1  0
 24 25  2  0
 25 26  1  0
 26 27  2  0
 17 28  1  0
 28 29  1  0
 29 30  1  0
  8  4  1  0
 30 13  1  0
 29 15  1  0
 27 22  1  0
  1 31  1  0
  4 32  1  6
  5 33  1  0
  5 34  1  0
  6 35  1  0
  6 36  1  0
  7 37  1  0
  7 38  1  0
 11 39  1  0
 11 40  1  0
 12 41  1  0
 13 42  1  6
 14 43  1  0
 14 44  1  0
 15 45  1  6
 16 46  1  0
 16 47  1  0
 17 48  1  6
 21 49  1  0
 23 50  1  0
 24 51  1  0
 25 52  1  0
 26 53  1  0
 27 54  1  0
 28 55  1  0
 28 56  1  0
 29 57  1  6
 30 58  1  0
 30 59  1  0
M  END
$$$$
