
     RDKit          3D

 73 77  0  0  0  0  0  0  0  0999 V2000
   -6.1847    2.1662   -0.3350 C   0  0  0  0  0  0  0  0  0  0  0  0
   -5.6080    1.1133    0.6103 C   0  0  2  0  0  0  0  0  0  0  0  0
   -4.9897    0.0966   -0.1563 O   0  0  0  0  0  0  0  0  0  0  0  0
   -4.1604   -0.7335    0.6539 C   0  0  1  0  0  0  0  0  0  0  0  0
   -2.9159   -0.0990    0.8889 O   0  0  0  0  0  0  0  0  0  0  0  0
   -2.1156   -0.1337   -0.2755 C   0  0  0  0  0  0  0  0  0  0  0  0
   -0.8515    0.7073   -0.0596 C   0  0  1  0  0  0  0  0  0  0  0  0
    0.0589    0.4150   -1.1072 O   0  0  0  0  0  0  0  0  0  0  0  0
    1.3063    1.0403   -0.8680 C   0  0  1  0  0  0  0  0  0  0  0  0
    2.2334    0.6057   -1.8644 O   0  0  0  0  0  0  0  0  0  0  0  0
    3.4888    0.0616   -1.5559 C   0  0  0  0  0  0  0  0  0  0  0  0
    3.6360   -1.0585   -0.7095 C   0  0  0  0  0  0  0  0  0  0  0  0
    2.4738   -1.8118   -0.2014 C   0  0  0  0  0  0  0  0  0  0  0  0
    2.3563   -2.0745    1.1708 C   0  0  0  0  0  0  0  0  0  0  0  0
    1.2499   -2.7738    1.6611 C   0  0  0  0  0  0  0  0  0  0  0  0
    0.2620   -3.2381    0.7819 C   0  0  0  0  0  0  0  0  0  0  0  0
   -0.8483   -3.9268    1.2669 O   0  0  0  0  0  0  0  0  0  0  0  0
    0.3905   -3.0087   -0.5940 C   0  0  0  0  0  0  0  0  0  0  0  0
   -0.5846   -3.4860   -1.4680 O   0  0  0  0  0  0  0  0  0  0  0  0
    1.4944   -2.2965   -1.0833 C   0  0  0  0  0  0  0  0  0  0  0  0
    4.8508   -1.4752   -0.3674 O   0  0  0  0  0  0  0  0  0  0  0  0
    5.9662   -0.9144   -0.8212 C   0  0  0  0  0  0  0  0  0  0  0  0
    7.2010   -1.4219   -0.4068 C   0  0  0  0  0  0  0  0  0  0  0  0
    8.3893   -0.8623   -0.8790 C   0  0  0  0  0  0  0  0  0  0  0  0
    9.6096   -1.3833   -0.4545 O   0  0  0  0  0  0  0  0  0  0  0  0
    8.3459    0.2136   -1.7733 C   0  0  0  0  0  0  0  0  0  0  0  0
    7.1171    0.7393   -2.1993 C   0  0  0  0  0  0  0  0  0  0  0  0
    7.1053    1.8137   -3.0897 O   0  0  0  0  0  0  0  0  0  0  0  0
    5.9095    0.1760   -1.7216 C   0  0  0  0  0  0  0  0  0  0  0  0
    4.6364    0.6579   -2.0885 C   0  0  0  0  0  0  0  0  0  0  0  0
    4.5110    1.6356   -2.8753 O   0  0  0  0  0  0  0  0  0  0  0  0
    1.1499    2.5701   -0.9592 C   0  0  2  0  0  0  0  0  0  0  0  0
    2.3850    3.2172   -0.7750 O   0  0  0  0  0  0  0  0  0  0  0  0
    0.1177    3.0541    0.0751 C   0  0  1  0  0  0  0  0  0  0  0  0
   -0.1543    4.4140   -0.1442 O   0  0  0  0  0  0  0  0  0  0  0  0
   -1.1796    2.2259   -0.0486 C   0  0  2  0  0  0  0  0  0  0  0  0
   -2.0726    2.5523    0.9879 O   0  0  0  0  0  0  0  0  0  0  0  0
   -4.8141   -1.0951    2.0226 C   0  0  2  0  0  0  0  0  0  0  0  0
   -4.4370   -2.3785    2.4589 O   0  0  0  0  0  0  0  0  0  0  0  0
   -6.3484   -0.9396    1.9633 C   0  0  2  0  0  0  0  0  0  0  0  0
   -6.8915   -1.8644    1.0520 O   0  0  0  0  0  0  0  0  0  0  0  0
   -6.7177    0.4971    1.5072 C   0  0  1  0  0  0  0  0  0  0  0  0
   -6.9739    1.3282    2.6131 O   0  0  0  0  0  0  0  0  0  0  0  0
   -5.3665    2.6181   -0.9352 H   0  0  0  0  0  0  0  0  0  0  0  0
   -6.9207    1.7060   -1.0285 H   0  0  0  0  0  0  0  0  0  0  0  0
   -6.6836    2.9715    0.2452 H   0  0  0  0  0  0  0  0  0  0  0  0
   -4.8491    1.6339    1.2416 H   0  0  0  0  0  0  0  0  0  0  0  0
   -4.0153   -1.6878    0.0951 H   0  0  0  0  0  0  0  0  0  0  0  0
   -2.6630    0.2530   -1.1660 H   0  0  0  0  0  0  0  0  0  0  0  0
   -1.8075   -1.1824   -0.4788 H   0  0  0  0  0  0  0  0  0  0  0  0
   -0.4166    0.4024    0.9223 H   0  0  0  0  0  0  0  0  0  0  0  0
    1.6920    0.7732    0.1450 H   0  0  0  0  0  0  0  0  0  0  0  0
    3.1093   -1.7181    1.8631 H   0  0  0  0  0  0  0  0  0  0  0  0
    1.1604   -2.9533    2.7249 H   0  0  0  0  0  0  0  0  0  0  0  0
   -0.9718   -4.1028    2.2572 H   0  0  0  0  0  0  0  0  0  0  0  0
   -0.5237   -3.3284   -2.4671 H   0  0  0  0  0  0  0  0  0  0  0  0
    1.5881   -2.1205   -2.1480 H   0  0  0  0  0  0  0  0  0  0  0  0
    7.2372   -2.2567    0.2825 H   0  0  0  0  0  0  0  0  0  0  0  0
   10.4905   -1.0009   -0.7781 H   0  0  0  0  0  0  0  0  0  0  0  0
    9.2703    0.6440   -2.1377 H   0  0  0  0  0  0  0  0  0  0  0  0
    7.9625    2.2263   -3.4387 H   0  0  0  0  0  0  0  0  0  0  0  0
    0.7793    2.8217   -1.9779 H   0  0  0  0  0  0  0  0  0  0  0  0
    2.7331    2.9564    0.1178 H   0  0  0  0  0  0  0  0  0  0  0  0
    0.5479    2.9127    1.0957 H   0  0  0  0  0  0  0  0  0  0  0  0
   -0.5570    4.7651    0.6925 H   0  0  0  0  0  0  0  0  0  0  0  0
   -1.6662    2.4875   -1.0147 H   0  0  0  0  0  0  0  0  0  0  0  0
   -1.6447    2.2933    1.8458 H   0  0  0  0  0  0  0  0  0  0  0  0
   -4.4446   -0.3757    2.7870 H   0  0  0  0  0  0  0  0  0  0  0  0
   -4.7331   -3.0358    1.7774 H   0  0  0  0  0  0  0  0  0  0  0  0
   -6.7732   -1.1159    2.9811 H   0  0  0  0  0  0  0  0  0  0  0  0
   -7.1110   -2.6869    1.5630 H   0  0  0  0  0  0  0  0  0  0  0  0
   -7.6641    0.4315    0.9250 H   0  0  0  0  0  0  0  0  0  0  0  0
   -6.1564    1.3430    3.1762 H   0  0  0  0  0  0  0  0  0  0  0  0
  1  2  1  0
  2  3  1  0
  3  4  1  0
  4  5  1  0
  5  6  1  0
  6  7  1  0
  7  8  1  0
  8  9  1  0
  9 10  1  0
 10 11  1  0
 11 12  2  0
 12 13  1  0
 13 14  2  0
 14 15  1  0
 15 16  2  0
 16 17  1  0
 16 18  1  0
 18 19  1  0
 18 20  2  0
 12 21  1  0
 21 22  1  0
 22 23  2  0
 23 24  1  0
 24 25  1  0
 24 26  2  0
 26 27  1  0
 27 28  1  0
 27 29  2  0
 29 30  1  0
 30 31  2  0
  9 32  1  0
 32 33  1  0
 32 34  1  0
 34 35  1  0
 34 36  1  0
 36 37  1  0
  4 38  1  0
 38 39  1  0
 38 40  1  0
 40 41  1  0
 40 42  1  0
 42 43  1  0
 42  2  1  0
 36  7  1  0
 30 11  1  0
 20 13  1  0
 29 22  1  0
  1 44  1  0
  1 45  1  0
  1 46  1  0
  2 47  1  1
  4 48  1  6
  6 49  1  0
  6 50  1  0
  7 51  1  1
  9 52  1  1
 14 53  1  0
 15 54  1  0
 17 55  1  0
 19 56  1  0
 20 57  1  0
 23 58  1  0
 25 59  1  0
 26 60  1  0
 28 61  1  0
 32 62  1  6
 33 63  1  0
 34 64  1  1
 35 65  1  0
 36 66  1  6
 37 67  1  0
 38 68  1  1
 39 69  1  0
 40 70  1  1
 41 71  1  0
 42 72  1  6
 43 73  1  0
M  END
$$$$
