
     RDKit          3D

 48 49  0  0  0  0  0  0  0  0999 V2000
   -2.9377    2.3535    0.1304 C   0  0  0  0  0  0  0  0  0  0  0  0
   -2.5021    0.9307   -0.2344 C   0  0  0  0  0  0  0  0  0  0  0  0
   -3.1684    0.4827   -1.5523 C   0  0  0  0  0  0  0  0  0  0  0  0
   -3.0670   -1.0379   -1.7033 C   0  0  0  0  0  0  0  0  0  0  0  0
   -3.7938   -1.7812   -0.5638 C   0  0  0  0  0  0  0  0  0  0  0  0
   -3.9312   -0.9468    0.7230 C   0  0  0  0  0  0  0  0  0  0  0  0
   -2.8106   -0.0101    0.8597 N   0  0  0  0  0  0  0  0  0  0  0  0
   -2.1087    0.0774    2.1099 C   0  0  0  0  0  0  0  0  0  0  0  0
   -2.4580    0.9445    2.9549 O   0  0  0  0  0  0  0  0  0  0  0  0
   -0.9820   -0.8713    2.4448 C   0  0  1  0  0  0  0  0  0  0  0  0
   -1.5058   -2.2321    2.5761 N   0  0  0  0  0  0  0  0  0  0  0  0
    0.1549   -0.8168    1.4014 C   0  0  0  0  0  0  0  0  0  0  0  0
    0.9117    0.5271    1.4374 C   0  0  0  0  0  0  0  0  0  0  0  0
    1.8256    0.6890    0.2960 N   0  0  0  0  0  0  0  0  0  0  0  0
    2.9828   -0.2107    0.3745 C   0  0  0  0  0  0  0  0  0  0  0  0
    4.0158    0.2154   -0.6307 C   0  0  0  0  0  0  0  0  0  0  0  0
    4.9623    1.1987   -0.2992 C   0  0  0  0  0  0  0  0  0  0  0  0
    5.9000    1.6218   -1.2463 C   0  0  0  0  0  0  0  0  0  0  0  0
    5.8922    1.0753   -2.5339 C   0  0  0  0  0  0  0  0  0  0  0  0
    7.0678    1.6088   -3.7214 Cl  0  0  0  0  0  0  0  0  0  0  0  0
    4.9417    0.1075   -2.8754 C   0  0  0  0  0  0  0  0  0  0  0  0
    4.0028   -0.3175   -1.9303 C   0  0  0  0  0  0  0  0  0  0  0  0
   -4.0154    2.3716    0.3994 H   0  0  0  0  0  0  0  0  0  0  0  0
   -2.7667    3.0387   -0.7272 H   0  0  0  0  0  0  0  0  0  0  0  0
   -2.3441    2.7289    0.9897 H   0  0  0  0  0  0  0  0  0  0  0  0
   -1.4048    0.9378   -0.4060 H   0  0  0  0  0  0  0  0  0  0  0  0
   -2.6649    0.9753   -2.4126 H   0  0  0  0  0  0  0  0  0  0  0  0
   -4.2418    0.7761   -1.5703 H   0  0  0  0  0  0  0  0  0  0  0  0
   -3.4982   -1.3433   -2.6811 H   0  0  0  0  0  0  0  0  0  0  0  0
   -1.9927   -1.3275   -1.7066 H   0  0  0  0  0  0  0  0  0  0  0  0
   -3.2398   -2.7181   -0.3391 H   0  0  0  0  0  0  0  0  0  0  0  0
   -4.8104   -2.0754   -0.9045 H   0  0  0  0  0  0  0  0  0  0  0  0
   -4.8769   -0.3635    0.6839 H   0  0  0  0  0  0  0  0  0  0  0  0
   -4.0009   -1.6241    1.6017 H   0  0  0  0  0  0  0  0  0  0  0  0
   -0.5578   -0.5737    3.4312 H   0  0  0  0  0  0  0  0  0  0  0  0
   -1.6880   -2.6296    1.6259 H   0  0  0  0  0  0  0  0  0  0  0  0
   -0.7709   -2.8304    3.0193 H   0  0  0  0  0  0  0  0  0  0  0  0
    0.8749   -1.6324    1.6265 H   0  0  0  0  0  0  0  0  0  0  0  0
   -0.2544   -1.0066    0.3858 H   0  0  0  0  0  0  0  0  0  0  0  0
    0.1851    1.3662    1.4100 H   0  0  0  0  0  0  0  0  0  0  0  0
    1.4688    0.6231    2.3955 H   0  0  0  0  0  0  0  0  0  0  0  0
    1.3047    0.5009   -0.5932 H   0  0  0  0  0  0  0  0  0  0  0  0
    2.6742   -1.2599    0.1702 H   0  0  0  0  0  0  0  0  0  0  0  0
    3.4329   -0.1828    1.3921 H   0  0  0  0  0  0  0  0  0  0  0  0
    4.9730    1.6373    0.6911 H   0  0  0  0  0  0  0  0  0  0  0  0
    6.6289    2.3764   -0.9796 H   0  0  0  0  0  0  0  0  0  0  0  0
    4.9269   -0.3128   -3.8730 H   0  0  0  0  0  0  0  0  0  0  0  0
    3.2659   -1.0599   -2.2113 H   0  0  0  0  0  0  0  0  0  0  0  0
  1  2  1  0
  2  3  1  0
  3  4  1  0
  4  5  1  0
  5  6  1  0
  6  7  1  0
  7  8  1  0
  8  9  2  0
  8 10  1  0
 10 11  1  0
 10 12  1  0
 12 13  1  0
 13 14  1  0
 14 15  1  0
 15 16  1  0
 16 17  2  0
 17 18  1  0
 18 19  2  0
 19 20  1  0
 19 21  1  0
 21 22  2  0
  7  2  1  0
 22 16  1  0
  1 23  1  0
  1 24  1  0
  1 25  1  0
  2 26  1  0
  3 27  1  0
  3 28  1  0
  4 29  1  0
  4 30  1  0
  5 31  1  0
  5 32  1  0
  6 33  1  0
  6 34  1  0
 10 35  1  1
 11 36  1  0
 11 37  1  0
 12 38  1  0
 12 39  1  0
 13 40  1  0
 13 41  1  0
 14 42  1  0
 15 43  1  0
 15 44  1  0
 17 45  1  0
 18 46  1  0
 21 47  1  0
 22 48  1  0
M  END
$$$$
