
     RDKit          3D

 46 49  0  0  0  0  0  0  0  0999 V2000
    1.3974   -0.9093   -2.2480 N   0  0  0  0  0  0  0  0  0  0  0  0
    1.9919   -1.1973   -1.2981 C   0  0  0  0  0  0  0  0  0  0  0  0
    2.7434   -1.5544   -0.1197 C   0  0  0  0  0  0  0  0  0  0  0  0
    4.0286   -2.0896   -0.2861 C   0  0  0  0  0  0  0  0  0  0  0  0
    4.7941   -2.4482    0.8248 C   0  0  0  0  0  0  0  0  0  0  0  0
    4.2820   -2.2773    2.1113 C   0  0  0  0  0  0  0  0  0  0  0  0
    5.0266   -2.6293    3.1883 F   0  0  0  0  0  0  0  0  0  0  0  0
    3.0030   -1.7449    2.2909 C   0  0  0  0  0  0  0  0  0  0  0  0
    2.2204   -1.3694    1.1831 C   0  0  0  0  0  0  0  0  0  0  0  0
    0.8310   -0.8053    1.4204 C   0  0  0  0  0  0  0  0  0  0  0  0
    0.6534    0.5438    0.8340 N   0  0  0  0  0  0  0  0  0  0  0  0
   -0.4748    0.8397    0.0740 C   0  0  0  0  0  0  0  0  0  0  0  0
   -1.5800   -0.0761   -0.0147 N   0  0  0  0  0  0  0  0  0  0  0  0
   -2.3505   -0.4065    1.1910 C   0  0  0  0  0  0  0  0  0  0  0  0
   -3.8267   -0.0591    0.9756 C   0  0  0  0  0  0  0  0  0  0  0  0
   -4.3978   -0.6186   -0.3490 C   0  0  0  0  0  0  0  0  0  0  0  0
   -3.3495   -1.3309   -1.2298 C   0  0  1  0  0  0  0  0  0  0  0  0
   -3.9003   -1.5819   -2.5620 N   0  0  0  0  0  0  0  0  0  0  0  0
   -2.0727   -0.4781   -1.3391 C   0  0  0  0  0  0  0  0  0  0  0  0
   -0.5919    2.0510   -0.5512 N   0  0  0  0  0  0  0  0  0  0  0  0
    0.3820    2.9683   -0.3832 C   0  0  0  0  0  0  0  0  0  0  0  0
    0.4757    4.2469   -0.8724 C   0  0  0  0  0  0  0  0  0  0  0  0
   -0.3976    4.8853   -1.6887 F   0  0  0  0  0  0  0  0  0  0  0  0
    1.6450    4.7551   -0.3218 C   0  0  0  0  0  0  0  0  0  0  0  0
    2.1282    6.0044   -0.5276 F   0  0  0  0  0  0  0  0  0  0  0  0
    2.2444    3.8369    0.4739 N   0  0  0  0  0  0  0  0  0  0  0  0
    1.4504    2.7501    0.4202 C   0  0  0  0  0  0  0  0  0  0  0  0
    1.5942    1.5306    1.0651 C   0  0  0  0  0  0  0  0  0  0  0  0
    2.5679    1.3453    1.8455 O   0  0  0  0  0  0  0  0  0  0  0  0
    4.4402   -2.2305   -1.2787 H   0  0  0  0  0  0  0  0  0  0  0  0
    5.7852   -2.8607    0.6868 H   0  0  0  0  0  0  0  0  0  0  0  0
    2.6243   -1.6214    3.2980 H   0  0  0  0  0  0  0  0  0  0  0  0
    0.1291   -1.5399    0.9766 H   0  0  0  0  0  0  0  0  0  0  0  0
    0.5977   -0.7533    2.5061 H   0  0  0  0  0  0  0  0  0  0  0  0
   -2.2542   -1.4922    1.4073 H   0  0  0  0  0  0  0  0  0  0  0  0
   -1.9674    0.1519    2.0736 H   0  0  0  0  0  0  0  0  0  0  0  0
   -4.4185   -0.4456    1.8336 H   0  0  0  0  0  0  0  0  0  0  0  0
   -3.9293    1.0485    0.9760 H   0  0  0  0  0  0  0  0  0  0  0  0
   -5.2173   -1.3345   -0.1200 H   0  0  0  0  0  0  0  0  0  0  0  0
   -4.8486    0.2195   -0.9257 H   0  0  0  0  0  0  0  0  0  0  0  0
   -3.0873   -2.3058   -0.7574 H   0  0  0  0  0  0  0  0  0  0  0  0
   -4.7300   -2.2110   -2.4608 H   0  0  0  0  0  0  0  0  0  0  0  0
   -3.1944   -2.1230   -3.1129 H   0  0  0  0  0  0  0  0  0  0  0  0
   -2.2896    0.4293   -1.9449 H   0  0  0  0  0  0  0  0  0  0  0  0
   -1.2867   -1.0662   -1.8572 H   0  0  0  0  0  0  0  0  0  0  0  0
    3.1290    3.9541    1.0163 H   0  0  0  0  0  0  0  0  0  0  0  0
  1  2  3  0
  2  3  1  0
  3  4  2  0
  4  5  1  0
  5  6  2  0
  6  7  1  0
  6  8  1  0
  8  9  2  0
  9 10  1  0
 10 11  1  0
 11 12  1  0
 12 13  1  0
 13 14  1  0
 14 15  1  0
 15 16  1  0
 16 17  1  0
 17 18  1  0
 17 19  1  0
 12 20  2  0
 20 21  1  0
 21 22  1  0
 22 23  1  0
 22 24  2  0
 24 25  1  0
 24 26  1  0
 26 27  1  0
 27 28  1  0
 28 29  2  0
  9  3  1  0
 28 11  1  0
 19 13  1  0
 27 21  2  0
  4 30  1  0
  5 31  1  0
  8 32  1  0
 10 33  1  0
 10 34  1  0
 14 35  1  0
 14 36  1  0
 15 37  1  0
 15 38  1  0
 16 39  1  0
 16 40  1  0
 17 41  1  1
 18 42  1  0
 18 43  1  0
 19 44  1  0
 19 45  1  0
 26 46  1  0
M  END
$$$$
