
     RDKit          3D

 60 61  0  0  0  0  0  0  0  0999 V2000
    7.9209    0.3126    0.4580 C   0  0  0  0  0  0  0  0  0  0  0  0
    6.8077   -0.9330    1.0669 S   0  0  0  0  0  0  0  0  0  0  0  0
    7.1360   -1.2445    2.5002 O   0  0  0  0  0  0  0  0  0  0  0  0
    6.9637   -2.1872    0.2532 O   0  0  0  0  0  0  0  0  0  0  0  0
    5.1524   -0.3451    0.9485 C   0  0  0  0  0  0  0  0  0  0  0  0
    4.3981   -0.5931   -0.2010 C   0  0  0  0  0  0  0  0  0  0  0  0
    3.0904   -0.1154   -0.3010 C   0  0  0  0  0  0  0  0  0  0  0  0
    2.5103    0.6294    0.7438 C   0  0  0  0  0  0  0  0  0  0  0  0
    1.1179    1.1204    0.5746 C   0  0  0  0  0  0  0  0  0  0  0  0
    0.5382    2.0670    1.3399 N   0  0  0  0  0  0  0  0  0  0  0  0
   -0.6533    2.2204    0.8495 O   0  0  0  0  0  0  0  0  0  0  0  0
   -0.8163    1.4150   -0.1695 C   0  0  0  0  0  0  0  0  0  0  0  0
   -2.0771    1.3462   -0.9933 C   0  0  1  0  0  0  0  0  0  0  0  0
   -2.0543    2.4131   -2.1201 C   0  0  0  0  0  0  0  0  0  0  0  0
   -0.9931    2.2101   -3.2124 C   0  0  0  0  0  0  0  0  0  0  0  0
    0.2894    2.4491   -2.7036 O   0  0  0  0  0  0  0  0  0  0  0  0
   -2.3713   -0.1042   -1.4932 C   0  0  2  0  0  0  0  0  0  0  0  0
   -3.5905   -0.1937   -2.3058 N   0  0  0  0  0  0  0  0  0  0  0  0
   -2.4093   -1.1154   -0.3559 C   0  0  0  0  0  0  0  0  0  0  0  0
   -1.3162   -1.9174   -0.2221 F   0  0  0  0  0  0  0  0  0  0  0  0
   -3.4243   -1.2765    0.5264 C   0  0  0  0  0  0  0  0  0  0  0  0
   -4.7355   -0.5567    0.5215 C   0  0  0  0  0  0  0  0  0  0  0  0
   -5.4127   -0.9835    1.8176 C   0  0  0  0  0  0  0  0  0  0  0  0
   -4.7463   -2.2876    2.2444 C   0  0  0  0  0  0  0  0  0  0  0  0
   -3.3522   -2.2780    1.6318 C   0  0  0  0  0  0  0  0  0  0  0  0
    0.2924    0.6854   -0.4021 N   0  0  0  0  0  0  0  0  0  0  0  0
    3.2807    0.8789    1.9082 C   0  0  0  0  0  0  0  0  0  0  0  0
    2.6587    1.7546    3.3045 Cl  0  0  0  0  0  0  0  0  0  0  0  0
    4.5921    0.3937    1.9955 C   0  0  0  0  0  0  0  0  0  0  0  0
    0.8006    0.8741   -1.2464 O   0  0  0  0  0  0  0  0  0  0  0  0
    0.4752    0.1293   -0.2833 C   0  0  0  0  0  0  0  0  0  0  0  0
    1.4569   -0.5598    0.4225 O   0  0  0  0  0  0  0  0  0  0  0  0
   -0.9554    0.0328    0.1372 C   0  0  0  0  0  0  0  0  0  0  0  0
   -1.1674   -1.1478    0.8254 F   0  0  0  0  0  0  0  0  0  0  0  0
   -1.7779    0.0595   -0.9745 F   0  0  0  0  0  0  0  0  0  0  0  0
   -1.2647    1.1000    0.9591 F   0  0  0  0  0  0  0  0  0  0  0  0
    8.9654   -0.0542    0.5310 H   0  0  0  0  0  0  0  0  0  0  0  0
    7.6819    0.5372   -0.6020 H   0  0  0  0  0  0  0  0  0  0  0  0
    7.8110    1.2359    1.0635 H   0  0  0  0  0  0  0  0  0  0  0  0
    4.8225   -1.1533   -1.0245 H   0  0  0  0  0  0  0  0  0  0  0  0
    2.5354   -0.3218   -1.2078 H   0  0  0  0  0  0  0  0  0  0  0  0
   -2.8997    1.6470   -0.3152 H   0  0  0  0  0  0  0  0  0  0  0  0
   -3.0520    2.4482   -2.6071 H   0  0  0  0  0  0  0  0  0  0  0  0
   -1.9038    3.4169   -1.6642 H   0  0  0  0  0  0  0  0  0  0  0  0
   -1.1951    2.9349   -4.0321 H   0  0  0  0  0  0  0  0  0  0  0  0
   -1.0557    1.1900   -3.6464 H   0  0  0  0  0  0  0  0  0  0  0  0
    0.9200    2.2722   -3.4492 H   0  0  0  0  0  0  0  0  0  0  0  0
   -1.5171   -0.4171   -2.1333 H   0  0  0  0  0  0  0  0  0  0  0  0
   -3.3603    0.0735   -3.2905 H   0  0  0  0  0  0  0  0  0  0  0  0
   -4.3020    0.4937   -1.9691 H   0  0  0  0  0  0  0  0  0  0  0  0
   -4.6156    0.5437    0.5112 H   0  0  0  0  0  0  0  0  0  0  0  0
   -5.3437   -0.8914   -0.3457 H   0  0  0  0  0  0  0  0  0  0  0  0
   -5.2399   -0.2109    2.5995 H   0  0  0  0  0  0  0  0  0  0  0  0
   -6.5075   -1.1168    1.6776 H   0  0  0  0  0  0  0  0  0  0  0  0
   -4.7006   -2.3735    3.3518 H   0  0  0  0  0  0  0  0  0  0  0  0
   -5.3253   -3.1464    1.8379 H   0  0  0  0  0  0  0  0  0  0  0  0
   -3.0925   -3.2869    1.2430 H   0  0  0  0  0  0  0  0  0  0  0  0
   -2.5979   -1.9531    2.3810 H   0  0  0  0  0  0  0  0  0  0  0  0
    5.1762    0.5917    2.8857 H   0  0  0  0  0  0  0  0  0  0  0  0
    2.4327   -0.4881    0.1599 H   0  0  0  0  0  0  0  0  0  0  0  0
  1  2  1  0
  2  3  2  0
  2  4  2  0
  2  5  1  0
  5  6  2  0
  6  7  1  0
  7  8  2  0
  8  9  1  0
  9 10  2  0
 10 11  1  0
 11 12  1  0
 12 13  1  0
 13 14  1  0
 14 15  1  0
 15 16  1  0
 13 17  1  0
 17 18  1  0
 17 19  1  0
 19 20  1  0
 19 21  2  3
 21 22  1  0
 22 23  1  0
 23 24  1  0
 24 25  1  0
 12 26  2  0
  8 27  1  0
 27 28  1  0
 27 29  2  0
 30 31  2  0
 31 32  1  0
 31 33  1  0
 33 34  1  0
 33 35  1  0
 33 36  1  0
 29  5  1  0
 26  9  1  0
 25 21  1  0
  1 37  1  0
  1 38  1  0
  1 39  1  0
  6 40  1  0
  7 41  1  0
 13 42  1  1
 14 43  1  0
 14 44  1  0
 15 45  1  0
 15 46  1  0
 16 47  1  0
 17 48  1  6
 18 49  1  0
 18 50  1  0
 22 51  1  0
 22 52  1  0
 23 53  1  0
 23 54  1  0
 24 55  1  0
 24 56  1  0
 25 57  1  0
 25 58  1  0
 29 59  1  0
 32 60  1  0
M  END
$$$$
