
     RDKit          3D

 28 28  0  0  0  0  0  0  0  0999 V2000
    2.9091   -0.6050   -1.0566 C   0  0  0  0  0  0  0  0  0  0  0  0
    2.2230    0.2989   -0.0252 C   0  0  1  0  0  0  0  0  0  0  0  0
    2.9903    1.5294    0.1876 N   0  0  0  0  0  0  0  0  0  0  0  0
    0.8192    0.6312   -0.4759 C   0  0  0  0  0  0  0  0  0  0  0  0
    0.6504    1.5723   -1.2994 O   0  0  0  0  0  0  0  0  0  0  0  0
   -0.3211   -0.1377   -0.0383 N   0  0  0  0  0  0  0  0  0  0  0  0
   -0.2393   -1.3103    0.8213 C   0  0  0  0  0  0  0  0  0  0  0  0
   -1.6676   -1.8200    0.9694 C   0  0  0  0  0  0  0  0  0  0  0  0
   -2.4642   -1.1519   -0.1472 C   0  0  0  0  0  0  0  0  0  0  0  0
   -1.6732    0.1016   -0.5259 C   0  0  1  0  0  0  0  0  0  0  0  0
   -2.2807    1.4203    0.1578 B   0  0  0  0  0  0  0  0  0  0  0  0
   -2.3621    1.5223    1.6133 O   0  0  0  0  0  0  0  0  0  0  0  0
   -2.7581    2.5208   -0.6753 O   0  0  0  0  0  0  0  0  0  0  0  0
    2.3373   -1.5490   -1.1806 H   0  0  0  0  0  0  0  0  0  0  0  0
    3.9343   -0.8612   -0.7149 H   0  0  0  0  0  0  0  0  0  0  0  0
    2.9766   -0.0961   -2.0421 H   0  0  0  0  0  0  0  0  0  0  0  0
    2.1860   -0.2456    0.9413 H   0  0  0  0  0  0  0  0  0  0  0  0
    3.9100    1.2784    0.6186 H   0  0  0  0  0  0  0  0  0  0  0  0
    3.1966    1.9804   -0.7341 H   0  0  0  0  0  0  0  0  0  0  0  0
    0.3971   -2.0850    0.3421 H   0  0  0  0  0  0  0  0  0  0  0  0
    0.1731   -1.0354    1.8158 H   0  0  0  0  0  0  0  0  0  0  0  0
   -1.7140   -2.9280    0.8927 H   0  0  0  0  0  0  0  0  0  0  0  0
   -2.0771   -1.5047    1.9544 H   0  0  0  0  0  0  0  0  0  0  0  0
   -3.5106   -0.9419    0.1691 H   0  0  0  0  0  0  0  0  0  0  0  0
   -2.4983   -1.8373   -1.0229 H   0  0  0  0  0  0  0  0  0  0  0  0
   -1.6701    0.2219   -1.6316 H   0  0  0  0  0  0  0  0  0  0  0  0
   -1.5003    1.9284    1.8844 H   0  0  0  0  0  0  0  0  0  0  0  0
   -1.9665    3.1034   -0.7979 H   0  0  0  0  0  0  0  0  0  0  0  0
  1  2  1  0
  2  3  1  0
  2  4  1  0
  4  5  2  0
  4  6  1  0
  6  7  1  0
  7  8  1  0
  8  9  1  0
  9 10  1  0
 10 11  1  0
 11 12  1  0
 11 13  1  0
 10  6  1  0
  1 14  1  0
  1 15  1  0
  1 16  1  0
  2 17  1  1
  3 18  1  0
  3 19  1  0
  7 20  1  0
  7 21  1  0
  8 22  1  0
  8 23  1  0
  9 24  1  0
  9 25  1  0
 10 26  1  6
 12 27  1  0
 13 28  1  0
M  END
$$$$
