
     RDKit          3D

 65 68  0  0  0  0  0  0  0  0999 V2000
    1.5324    0.7364    0.3560 N   0  0  0  0  0  0  0  0  0  0  0  0
    2.3865    0.7812   -0.8350 C   0  0  1  0  0  0  0  0  0  0  0  0
    1.5177    0.9956   -2.0858 C   0  0  0  0  0  0  0  0  0  0  0  0
    0.5725   -0.1519   -2.2900 C   0  0  0  0  0  0  0  0  0  0  0  0
    0.9332   -1.1253   -3.0055 O   0  0  0  0  0  0  0  0  0  0  0  0
   -0.7143   -0.1523   -1.6457 N   0  0  0  0  0  0  0  0  0  0  0  0
   -1.6788   -1.2685   -1.7412 C   0  0  0  0  0  0  0  0  0  0  0  0
   -1.9933   -1.5247   -3.2239 C   0  0  0  0  0  0  0  0  0  0  0  0
   -2.3828   -0.4353   -4.0323 C   0  0  0  0  0  0  0  0  0  0  0  0
   -2.6910   -0.6176   -5.3827 C   0  0  0  0  0  0  0  0  0  0  0  0
   -2.6227   -1.8895   -5.9506 C   0  0  0  0  0  0  0  0  0  0  0  0
   -2.2482   -2.9820   -5.1683 C   0  0  0  0  0  0  0  0  0  0  0  0
   -1.9383   -2.8079   -3.8159 C   0  0  0  0  0  0  0  0  0  0  0  0
   -1.0919   -2.5004   -1.0014 C   0  0  0  0  0  0  0  0  0  0  0  0
   -0.7889   -2.1919    0.4828 C   0  0  0  0  0  0  0  0  0  0  0  0
   -1.5981   -1.0699    1.0175 N   0  0  0  0  0  0  0  0  0  0  0  0
   -1.5801   -1.0915    2.4957 C   0  0  0  0  0  0  0  0  0  0  0  0
   -1.9546    0.2565    3.0556 C   0  0  0  0  0  0  0  0  0  0  0  0
   -3.2316    0.4764    3.5999 C   0  0  0  0  0  0  0  0  0  0  0  0
   -3.5782    1.7371    4.0958 C   0  0  0  0  0  0  0  0  0  0  0  0
   -2.6547    2.7852    4.0526 C   0  0  0  0  0  0  0  0  0  0  0  0
   -1.3823    2.5737    3.5149 C   0  0  0  0  0  0  0  0  0  0  0  0
   -1.0325    1.3146    3.0180 C   0  0  0  0  0  0  0  0  0  0  0  0
   -2.9801   -1.1248    0.4994 C   0  0  0  0  0  0  0  0  0  0  0  0
   -3.0080   -0.8811   -1.0242 C   0  0  0  0  0  0  0  0  0  0  0  0
    3.4510    1.8966   -0.7251 C   0  0  0  0  0  0  0  0  0  0  0  0
    4.3960    1.6611    0.4274 C   0  0  0  0  0  0  0  0  0  0  0  0
    4.1951    2.3245    1.6505 C   0  0  0  0  0  0  0  0  0  0  0  0
    5.0501    2.0874    2.7307 C   0  0  0  0  0  0  0  0  0  0  0  0
    6.1083    1.1847    2.6013 C   0  0  0  0  0  0  0  0  0  0  0  0
    6.3122    0.5151    1.3921 C   0  0  0  0  0  0  0  0  0  0  0  0
    5.4598    0.7470    0.3073 C   0  0  0  0  0  0  0  0  0  0  0  0
    5.6704    0.0809   -0.8563 F   0  0  0  0  0  0  0  0  0  0  0  0
    1.1957    1.7013    0.5803 H   0  0  0  0  0  0  0  0  0  0  0  0
    2.0912    0.3907    1.1691 H   0  0  0  0  0  0  0  0  0  0  0  0
    2.9079   -0.1975   -0.9409 H   0  0  0  0  0  0  0  0  0  0  0  0
    0.9412    1.9419   -1.9936 H   0  0  0  0  0  0  0  0  0  0  0  0
    2.1678    1.0870   -2.9836 H   0  0  0  0  0  0  0  0  0  0  0  0
   -0.9656    0.6916   -1.0814 H   0  0  0  0  0  0  0  0  0  0  0  0
   -2.4462    0.5617   -3.6145 H   0  0  0  0  0  0  0  0  0  0  0  0
   -2.9845    0.2295   -5.9892 H   0  0  0  0  0  0  0  0  0  0  0  0
   -2.8620   -2.0290   -6.9969 H   0  0  0  0  0  0  0  0  0  0  0  0
   -2.1981   -3.9687   -5.6107 H   0  0  0  0  0  0  0  0  0  0  0  0
   -1.6538   -3.6843   -3.2535 H   0  0  0  0  0  0  0  0  0  0  0  0
   -0.1675   -2.8676   -1.4957 H   0  0  0  0  0  0  0  0  0  0  0  0
   -1.8344   -3.3290   -1.0267 H   0  0  0  0  0  0  0  0  0  0  0  0
    0.2858   -1.9217    0.5730 H   0  0  0  0  0  0  0  0  0  0  0  0
   -0.9515   -3.1217    1.0756 H   0  0  0  0  0  0  0  0  0  0  0  0
   -0.5576   -1.3334    2.8658 H   0  0  0  0  0  0  0  0  0  0  0  0
   -2.2541   -1.8867    2.8894 H   0  0  0  0  0  0  0  0  0  0  0  0
   -3.9593   -0.3249    3.6347 H   0  0  0  0  0  0  0  0  0  0  0  0
   -4.5636    1.9020    4.5120 H   0  0  0  0  0  0  0  0  0  0  0  0
   -2.9246    3.7605    4.4366 H   0  0  0  0  0  0  0  0  0  0  0  0
   -0.6664    3.3849    3.4841 H   0  0  0  0  0  0  0  0  0  0  0  0
   -0.0421    1.1609    2.6131 H   0  0  0  0  0  0  0  0  0  0  0  0
   -3.6131   -0.3486    0.9798 H   0  0  0  0  0  0  0  0  0  0  0  0
   -3.4358   -2.1159    0.7281 H   0  0  0  0  0  0  0  0  0  0  0  0
   -3.2475    0.1869   -1.2234 H   0  0  0  0  0  0  0  0  0  0  0  0
   -3.8531   -1.4739   -1.4414 H   0  0  0  0  0  0  0  0  0  0  0  0
    4.0406    1.9420   -1.6670 H   0  0  0  0  0  0  0  0  0  0  0  0
    2.9524    2.8855   -0.6179 H   0  0  0  0  0  0  0  0  0  0  0  0
    3.3736    3.0202    1.7692 H   0  0  0  0  0  0  0  0  0  0  0  0
    4.8902    2.6017    3.6695 H   0  0  0  0  0  0  0  0  0  0  0  0
    6.7687    1.0018    3.4391 H   0  0  0  0  0  0  0  0  0  0  0  0
    7.1308   -0.1866    1.2967 H   0  0  0  0  0  0  0  0  0  0  0  0
  1  2  1  0
  2  3  1  0
  3  4  1  0
  4  5  2  0
  4  6  1  0
  6  7  1  0
  7  8  1  0
  8  9  2  0
  9 10  1  0
 10 11  2  0
 11 12  1  0
 12 13  2  0
  7 14  1  0
 14 15  1  0
 15 16  1  0
 16 17  1  0
 17 18  1  0
 18 19  2  0
 19 20  1  0
 20 21  2  0
 21 22  1  0
 22 23  2  0
 16 24  1  0
 24 25  1  0
  2 26  1  0
 26 27  1  0
 27 28  2  0
 28 29  1  0
 29 30  2  0
 30 31  1  0
 31 32  2  0
 32 33  1  0
 25  7  1  0
 32 27  1  0
 13  8  1  0
 23 18  1  0
  1 34  1  0
  1 35  1  0
  2 36  1  6
  3 37  1  0
  3 38  1  0
  6 39  1  0
  9 40  1  0
 10 41  1  0
 11 42  1  0
 12 43  1  0
 13 44  1  0
 14 45  1  0
 14 46  1  0
 15 47  1  0
 15 48  1  0
 17 49  1  0
 17 50  1  0
 19 51  1  0
 20 52  1  0
 21 53  1  0
 22 54  1  0
 23 55  1  0
 24 56  1  0
 24 57  1  0
 25 58  1  0
 25 59  1  0
 26 60  1  0
 26 61  1  0
 28 62  1  0
 29 63  1  0
 30 64  1  0
 31 65  1  0
M  END
$$$$
