
     RDKit          3D

 61 63  0  0  0  0  0  0  0  0999 V2000
    1.9268   -0.5075   -0.5803 N   0  0  0  0  0  0  0  0  0  0  0  0
    2.1936    0.7572    0.1138 C   0  0  1  0  0  0  0  0  0  0  0  0
    0.8976    1.5723    0.3192 C   0  0  0  0  0  0  0  0  0  0  0  0
    0.3206    2.0314   -0.9968 C   0  0  0  0  0  0  0  0  0  0  0  0
    0.8275    3.0451   -1.5498 O   0  0  0  0  0  0  0  0  0  0  0  0
   -0.7372    1.3108   -1.6642 N   0  0  0  0  0  0  0  0  0  0  0  0
   -0.7077    1.1790   -3.1321 C   0  0  0  0  0  0  0  0  0  0  0  0
   -2.1019    1.4244   -3.7183 C   0  0  0  0  0  0  0  0  0  0  0  0
   -3.1015    0.6975   -2.9458 N   0  0  0  0  0  0  0  0  0  0  0  0
   -4.3537    0.4982   -3.3181 N   0  0  0  0  0  0  0  0  0  0  0  0
   -5.0440   -0.0424   -2.3231 N   0  0  0  0  0  0  0  0  0  0  0  0
   -4.2026   -0.1846   -1.2741 C   0  0  0  0  0  0  0  0  0  0  0  0
   -4.6465   -0.6808    0.0463 C   0  0  0  0  0  0  0  0  0  0  0  0
   -3.7570   -1.2211    0.9914 C   0  0  0  0  0  0  0  0  0  0  0  0
   -4.2488   -1.6777    2.2163 C   0  0  0  0  0  0  0  0  0  0  0  0
   -5.6143   -1.6046    2.4899 C   0  0  0  0  0  0  0  0  0  0  0  0
   -6.4740   -1.0796    1.5251 C   0  0  0  0  0  0  0  0  0  0  0  0
   -5.9770   -0.6382    0.3391 N   0  0  0  0  0  0  0  0  0  0  0  0
   -2.9651    0.3045   -1.6714 C   0  0  0  0  0  0  0  0  0  0  0  0
   -1.6952    0.4977   -0.8950 C   0  0  0  0  0  0  0  0  0  0  0  0
    2.8682    0.4761    1.4697 C   0  0  0  0  0  0  0  0  0  0  0  0
    4.1958   -0.2197    1.2924 C   0  0  0  0  0  0  0  0  0  0  0  0
    5.3438    0.5336    0.9929 C   0  0  0  0  0  0  0  0  0  0  0  0
    6.5749   -0.1003    0.7985 C   0  0  0  0  0  0  0  0  0  0  0  0
    7.6768    0.6367    0.5134 F   0  0  0  0  0  0  0  0  0  0  0  0
    6.6684   -1.4919    0.8945 C   0  0  0  0  0  0  0  0  0  0  0  0
    7.8613   -2.1082    0.7049 F   0  0  0  0  0  0  0  0  0  0  0  0
    5.5302   -2.2503    1.1818 C   0  0  0  0  0  0  0  0  0  0  0  0
    4.2959   -1.6217    1.3772 C   0  0  0  0  0  0  0  0  0  0  0  0
    3.2026   -2.3800    1.6451 F   0  0  0  0  0  0  0  0  0  0  0  0
   -2.6759   -1.3973    0.6496 O   0  0  0  0  0  0  0  0  0  0  0  0
   -1.9087   -0.5334    0.1480 C   0  0  0  0  0  0  0  0  0  0  0  0
   -2.4416    0.5017   -0.6165 O   0  0  0  0  0  0  0  0  0  0  0  0
   -0.4594   -0.6323    0.3786 C   0  0  0  0  0  0  0  0  0  0  0  0
    0.4015    0.2569   -0.1296 C   0  0  0  0  0  0  0  0  0  0  0  0
    1.8532    0.1656    0.0960 C   0  0  0  0  0  0  0  0  0  0  0  0
    2.3461   -0.7674    0.7866 O   0  0  0  0  0  0  0  0  0  0  0  0
    2.6899    1.1257   -0.4632 O   0  0  0  0  0  0  0  0  0  0  0  0
    1.6162   -0.3059   -1.5577 H   0  0  0  0  0  0  0  0  0  0  0  0
    1.1529   -1.0176   -0.0953 H   0  0  0  0  0  0  0  0  0  0  0  0
    2.8974    1.3628   -0.5017 H   0  0  0  0  0  0  0  0  0  0  0  0
    0.1692    0.9763    0.9050 H   0  0  0  0  0  0  0  0  0  0  0  0
    1.1254    2.4765    0.9252 H   0  0  0  0  0  0  0  0  0  0  0  0
   -0.3746    0.1514   -3.3942 H   0  0  0  0  0  0  0  0  0  0  0  0
    0.0069    1.8936   -3.5942 H   0  0  0  0  0  0  0  0  0  0  0  0
   -2.1286    1.0920   -4.7782 H   0  0  0  0  0  0  0  0  0  0  0  0
   -2.3328    2.5106   -3.6774 H   0  0  0  0  0  0  0  0  0  0  0  0
   -2.7041   -1.3241    0.7888 H   0  0  0  0  0  0  0  0  0  0  0  0
   -3.5718   -2.0969    2.9496 H   0  0  0  0  0  0  0  0  0  0  0  0
   -6.0033   -1.9588    3.4358 H   0  0  0  0  0  0  0  0  0  0  0  0
   -7.5371   -1.0233    1.7176 H   0  0  0  0  0  0  0  0  0  0  0  0
   -1.2357   -0.4902   -0.6882 H   0  0  0  0  0  0  0  0  0  0  0  0
   -1.9522    1.0113    0.0559 H   0  0  0  0  0  0  0  0  0  0  0  0
    2.1925   -0.1325    2.1099 H   0  0  0  0  0  0  0  0  0  0  0  0
    3.0359    1.4353    2.0076 H   0  0  0  0  0  0  0  0  0  0  0  0
    5.2827    1.6118    0.9085 H   0  0  0  0  0  0  0  0  0  0  0  0
    5.6036   -3.3281    1.2504 H   0  0  0  0  0  0  0  0  0  0  0  0
   -3.4397    0.5700   -0.7754 H   0  0  0  0  0  0  0  0  0  0  0  0
   -0.0962   -1.4569    0.9808 H   0  0  0  0  0  0  0  0  0  0  0  0
    0.0383    1.0811   -0.7315 H   0  0  0  0  0  0  0  0  0  0  0  0
    3.6925    1.0863   -0.3235 H   0  0  0  0  0  0  0  0  0  0  0  0
  1  2  1  0
  2  3  1  0
  3  4  1  0
  4  5  2  0
  4  6  1  0
  6  7  1  0
  7  8  1  0
  8  9  1  0
  9 10  1  0
 10 11  2  0
 11 12  1  0
 12 13  1  0
 13 14  2  0
 14 15  1  0
 15 16  2  0
 16 17  1  0
 17 18  2  0
 12 19  2  0
 19 20  1  0
  2 21  1  0
 21 22  1  0
 22 23  2  0
 23 24  1  0
 24 25  1  0
 24 26  2  0
 26 27  1  0
 26 28  1  0
 28 29  2  0
 29 30  1  0
 31 32  2  0
 32 33  1  0
 32 34  1  0
 34 35  2  0
 35 36  1  0
 36 37  2  0
 36 38  1  0
 20  6  1  0
 29 22  1  0
 19  9  1  0
 18 13  1  0
  1 39  1  0
  1 40  1  0
  2 41  1  6
  3 42  1  0
  3 43  1  0
  7 44  1  0
  7 45  1  0
  8 46  1  0
  8 47  1  0
 14 48  1  0
 15 49  1  0
 16 50  1  0
 17 51  1  0
 20 52  1  0
 20 53  1  0
 21 54  1  0
 21 55  1  0
 23 56  1  0
 28 57  1  0
 33 58  1  0
 34 59  1  0
 35 60  1  0
 38 61  1  0
M  END
$$$$
