
     RDKit          3D

 38 37  0  0  0  0  0  0  0  0999 V2000
    5.8562    0.3369    0.6847 C   0  0  0  0  0  0  0  0  0  0  0  0
    4.6291   -0.5151    0.3734 C   0  0  0  0  0  0  0  0  0  0  0  0
    3.3451    0.3201    0.4322 C   0  0  0  0  0  0  0  0  0  0  0  0
    2.1121   -0.5438    0.1201 C   0  0  0  0  0  0  0  0  0  0  0  0
    0.7959    0.2579    0.1903 C   0  0  2  0  0  0  0  0  0  0  0  0
   -0.3400   -0.6665    0.1984 N   0  0  0  0  0  0  0  0  0  0  0  0
   -1.5567   -0.3935    0.9105 C   0  0  0  0  0  0  0  0  0  0  0  0
   -1.6318    0.6085    1.6739 O   0  0  0  0  0  0  0  0  0  0  0  0
   -2.7633   -1.2805    0.6948 C   0  0  1  0  0  0  0  0  0  0  0  0
   -3.7027   -1.2290    1.8203 N   0  0  0  0  0  0  0  0  0  0  0  0
   -3.4698   -0.9726   -0.6438 C   0  0  0  0  0  0  0  0  0  0  0  0
   -4.0448    0.4500   -0.7662 C   0  0  0  0  0  0  0  0  0  0  0  0
   -5.2836    0.5844   -0.0053 N   0  0  0  0  0  0  0  0  0  0  0  0
    0.6155    1.2805   -1.0371 B   0  0  0  0  0  0  0  0  0  0  0  0
    1.5145    1.2406   -2.1894 O   0  0  0  0  0  0  0  0  0  0  0  0
   -0.5053    2.2174   -1.0329 O   0  0  0  0  0  0  0  0  0  0  0  0
    6.7688   -0.2936    0.6351 H   0  0  0  0  0  0  0  0  0  0  0  0
    5.9525    1.1599   -0.0553 H   0  0  0  0  0  0  0  0  0  0  0  0
    5.7776    0.7683    1.7054 H   0  0  0  0  0  0  0  0  0  0  0  0
    4.5714   -1.3449    1.1112 H   0  0  0  0  0  0  0  0  0  0  0  0
    4.7444   -0.9537   -0.6419 H   0  0  0  0  0  0  0  0  0  0  0  0
    3.2388    0.7576    1.4494 H   0  0  0  0  0  0  0  0  0  0  0  0
    3.4195    1.1519   -0.3007 H   0  0  0  0  0  0  0  0  0  0  0  0
    2.0638   -1.3634    0.8712 H   0  0  0  0  0  0  0  0  0  0  0  0
    2.2204   -1.0175   -0.8811 H   0  0  0  0  0  0  0  0  0  0  0  0
    0.8035    0.8501    1.1314 H   0  0  0  0  0  0  0  0  0  0  0  0
   -0.3259   -1.4765   -0.4632 H   0  0  0  0  0  0  0  0  0  0  0  0
   -2.3917   -2.3271    0.6221 H   0  0  0  0  0  0  0  0  0  0  0  0
   -3.9496   -0.2378    2.0415 H   0  0  0  0  0  0  0  0  0  0  0  0
   -3.2259   -1.6188    2.6661 H   0  0  0  0  0  0  0  0  0  0  0  0
   -4.2810   -1.7152   -0.8084 H   0  0  0  0  0  0  0  0  0  0  0  0
   -2.7363   -1.1197   -1.4669 H   0  0  0  0  0  0  0  0  0  0  0  0
   -4.2504    0.6626   -1.8393 H   0  0  0  0  0  0  0  0  0  0  0  0
   -3.3055    1.2019   -0.4169 H   0  0  0  0  0  0  0  0  0  0  0  0
   -5.5891    1.5825   -0.0679 H   0  0  0  0  0  0  0  0  0  0  0  0
   -6.0235    0.0169   -0.4795 H   0  0  0  0  0  0  0  0  0  0  0  0
    1.0978    0.5904   -2.8096 H   0  0  0  0  0  0  0  0  0  0  0  0
   -0.1497    3.0309   -0.5940 H   0  0  0  0  0  0  0  0  0  0  0  0
  1  2  1  0
  2  3  1  0
  3  4  1  0
  4  5  1  0
  5  6  1  0
  6  7  1  0
  7  8  2  0
  7  9  1  0
  9 10  1  0
  9 11  1  0
 11 12  1  0
 12 13  1  0
  5 14  1  0
 14 15  1  0
 14 16  1  0
  1 17  1  0
  1 18  1  0
  1 19  1  0
  2 20  1  0
  2 21  1  0
  3 22  1  0
  3 23  1  0
  4 24  1  0
  4 25  1  0
  5 26  1  1
  6 27  1  0
  9 28  1  6
 10 29  1  0
 10 30  1  0
 11 31  1  0
 11 32  1  0
 12 33  1  0
 12 34  1  0
 13 35  1  0
 13 36  1  0
 15 37  1  0
 16 38  1  0
M  END
$$$$
