
     RDKit          3D

 54 58  0  0  0  0  0  0  0  0999 V2000
   -1.3730    2.5345    0.0425 N   0  0  0  0  0  0  0  0  0  0  0  0
   -2.4012    1.4912    0.0880 C   0  0  1  0  0  0  0  0  0  0  0  0
   -2.1548    0.4601   -1.0265 C   0  0  0  0  0  0  0  0  0  0  0  0
   -0.8583   -0.3586   -0.7822 C   0  0  1  0  0  0  0  0  0  0  0  0
    0.3340    0.3300   -1.3440 N   0  0  0  0  0  0  0  0  0  0  0  0
    0.2643    0.5117   -2.8205 C   0  0  0  0  0  0  0  0  0  0  0  0
    1.6326    0.2384   -3.2979 C   0  0  0  0  0  0  0  0  0  0  0  0
    2.0093   -0.2782   -4.4802 N   0  0  0  0  0  0  0  0  0  0  0  0
    3.0201   -1.1122   -4.2732 N   0  0  0  0  0  0  0  0  0  0  0  0
    3.2660   -1.1271   -2.9446 C   0  0  0  0  0  0  0  0  0  0  0  0
    4.2926   -2.3141   -2.1609 S   0  0  0  0  0  0  0  0  0  0  0  0
    5.6223   -2.3707   -2.8587 O   0  0  0  0  0  0  0  0  0  0  0  0
    3.6386   -3.6651   -2.2404 O   0  0  0  0  0  0  0  0  0  0  0  0
    4.5481   -1.8620   -0.4777 C   0  0  0  0  0  0  0  0  0  0  0  0
    5.3769   -0.7747   -0.1672 C   0  0  0  0  0  0  0  0  0  0  0  0
    5.5533   -0.3830    1.1635 C   0  0  0  0  0  0  0  0  0  0  0  0
    4.8998   -1.0726    2.1888 C   0  0  0  0  0  0  0  0  0  0  0  0
    4.0688   -2.1545    1.8843 C   0  0  0  0  0  0  0  0  0  0  0  0
    3.8917   -2.5496    0.5546 C   0  0  0  0  0  0  0  0  0  0  0  0
    2.3875   -0.2656   -2.3178 C   0  0  0  0  0  0  0  0  0  0  0  0
    1.6016   -0.4049   -1.0774 C   0  0  0  0  0  0  0  0  0  0  0  0
   -0.6845   -0.6055    0.7424 C   0  0  0  0  0  0  0  0  0  0  0  0
   -1.9279   -0.5573    1.4131 O   0  0  0  0  0  0  0  0  0  0  0  0
   -2.3953    0.7838    1.4836 C   0  0  2  0  0  0  0  0  0  0  0  0
   -3.7905    0.7864    2.0745 C   0  0  0  0  0  0  0  0  0  0  0  0
   -4.7306   -0.1841    1.6781 C   0  0  0  0  0  0  0  0  0  0  0  0
   -6.0319   -0.1607    2.1885 C   0  0  0  0  0  0  0  0  0  0  0  0
   -6.9265   -1.1051    1.8062 F   0  0  0  0  0  0  0  0  0  0  0  0
   -6.4134    0.8382    3.0868 C   0  0  0  0  0  0  0  0  0  0  0  0
   -5.4971    1.8198    3.4706 C   0  0  0  0  0  0  0  0  0  0  0  0
   -4.1933    1.8032    2.9641 C   0  0  0  0  0  0  0  0  0  0  0  0
   -3.3306    2.7829    3.3360 F   0  0  0  0  0  0  0  0  0  0  0  0
   -1.4185    3.0054   -0.8906 H   0  0  0  0  0  0  0  0  0  0  0  0
   -1.6222    3.2686    0.7450 H   0  0  0  0  0  0  0  0  0  0  0  0
   -3.3901    1.9694   -0.1074 H   0  0  0  0  0  0  0  0  0  0  0  0
   -2.1608    0.9632   -2.0151 H   0  0  0  0  0  0  0  0  0  0  0  0
   -3.0165   -0.2435   -1.0420 H   0  0  0  0  0  0  0  0  0  0  0  0
   -0.9852   -1.3471   -1.2821 H   0  0  0  0  0  0  0  0  0  0  0  0
   -0.0206    1.5561   -3.0661 H   0  0  0  0  0  0  0  0  0  0  0  0
   -0.4380   -0.2068   -3.3007 H   0  0  0  0  0  0  0  0  0  0  0  0
    1.5048   -0.1820   -5.3890 H   0  0  0  0  0  0  0  0  0  0  0  0
    5.8780   -0.2269   -0.9553 H   0  0  0  0  0  0  0  0  0  0  0  0
    6.1930    0.4576    1.3994 H   0  0  0  0  0  0  0  0  0  0  0  0
    5.0347   -0.7669    3.2182 H   0  0  0  0  0  0  0  0  0  0  0  0
    3.5586   -2.6845    2.6782 H   0  0  0  0  0  0  0  0  0  0  0  0
    3.2351   -3.3806    0.3328 H   0  0  0  0  0  0  0  0  0  0  0  0
    1.4258   -1.4868   -0.8824 H   0  0  0  0  0  0  0  0  0  0  0  0
    2.1443    0.0588   -0.2273 H   0  0  0  0  0  0  0  0  0  0  0  0
    0.0312    0.1226    1.1912 H   0  0  0  0  0  0  0  0  0  0  0  0
   -0.2447   -1.6130    0.9002 H   0  0  0  0  0  0  0  0  0  0  0  0
   -1.7291    1.3366    2.1858 H   0  0  0  0  0  0  0  0  0  0  0  0
   -4.4568   -0.9579    0.9720 H   0  0  0  0  0  0  0  0  0  0  0  0
   -7.4215    0.8573    3.4804 H   0  0  0  0  0  0  0  0  0  0  0  0
   -5.8003    2.5991    4.1580 H   0  0  0  0  0  0  0  0  0  0  0  0
  1  2  1  0
  2  3  1  0
  3  4  1  0
  4  5  1  0
  5  6  1  0
  6  7  1  0
  7  8  1  0
  8  9  1  0
  9 10  2  0
 10 11  1  0
 11 12  2  0
 11 13  2  0
 11 14  1  0
 14 15  2  0
 15 16  1  0
 16 17  2  0
 17 18  1  0
 18 19  2  0
 10 20  1  0
 20 21  1  0
  4 22  1  0
 22 23  1  0
 23 24  1  0
 24 25  1  0
 25 26  2  0
 26 27  1  0
 27 28  1  0
 27 29  2  0
 29 30  1  0
 30 31  2  0
 31 32  1  0
 24  2  1  0
 31 25  1  0
 21  5  1  0
 20  7  2  0
 19 14  1  0
  1 33  1  0
  1 34  1  0
  2 35  1  6
  3 36  1  0
  3 37  1  0
  4 38  1  6
  6 39  1  0
  6 40  1  0
  8 41  1  0
 15 42  1  0
 16 43  1  0
 17 44  1  0
 18 45  1  0
 19 46  1  0
 21 47  1  0
 21 48  1  0
 22 49  1  0
 22 50  1  0
 24 51  1  1
 26 52  1  0
 29 53  1  0
 30 54  1  0
M  END
$$$$
