
     RDKit          3D

 61 62  0  0  0  0  0  0  0  0999 V2000
   -0.0314    5.4151    2.0011 C   0  0  0  0  0  0  0  0  0  0  0  0
   -0.1842    4.0402    1.4215 C   0  0  0  0  0  0  0  0  0  0  0  0
    0.1400    2.9101    2.1880 C   0  0  0  0  0  0  0  0  0  0  0  0
   -0.0363    1.6275    1.6613 C   0  0  0  0  0  0  0  0  0  0  0  0
   -0.5556    1.4611    0.3693 C   0  0  0  0  0  0  0  0  0  0  0  0
   -0.7258    0.1009   -0.1951 C   0  0  0  0  0  0  0  0  0  0  0  0
   -2.0054   -0.5203   -0.1912 C   0  0  0  0  0  0  0  0  0  0  0  0
   -3.1915    0.2015    0.4342 C   0  0  0  0  0  0  0  0  0  0  0  0
   -2.9765    0.3876    1.8666 N   0  0  0  0  0  0  0  0  0  0  0  0
   -2.1309   -1.8151   -0.7665 C   0  0  0  0  0  0  0  0  0  0  0  0
   -3.4361   -2.5733   -0.8525 C   0  0  0  0  0  0  0  0  0  0  0  0
   -3.8204   -3.2502    0.4816 C   0  0  0  0  0  0  0  0  0  0  0  0
   -5.2254   -3.8556    0.3793 C   0  0  0  0  0  0  0  0  0  0  0  0
   -2.8075   -4.3348    0.8773 C   0  0  0  0  0  0  0  0  0  0  0  0
   -1.0319   -2.4340   -1.2708 N   0  0  0  0  0  0  0  0  0  0  0  0
    0.1995   -1.8721   -1.2710 C   0  0  0  0  0  0  0  0  0  0  0  0
    1.2765   -2.5796   -1.8112 C   0  0  0  0  0  0  0  0  0  0  0  0
    2.5518   -2.0145   -1.8339 C   0  0  0  0  0  0  0  0  0  0  0  0
    2.7683   -0.7259   -1.3176 C   0  0  0  0  0  0  0  0  0  0  0  0
    4.1130   -0.1021   -1.3341 C   0  0  0  0  0  0  0  0  0  0  0  0
    5.2857   -0.6526   -1.8309 C   0  0  0  0  0  0  0  0  0  0  0  0
    6.2668    0.2941   -1.6259 C   0  0  0  0  0  0  0  0  0  0  0  0
    5.6364    1.3610   -1.0189 C   0  0  0  0  0  0  0  0  0  0  0  0
    6.2740    2.6141   -0.6044 C   0  0  0  0  0  0  0  0  0  0  0  0
    5.5867    3.5169   -0.0572 O   0  0  0  0  0  0  0  0  0  0  0  0
    7.6359    2.8087   -0.8137 O   0  0  0  0  0  0  0  0  0  0  0  0
    4.3605    1.0988   -0.8582 O   0  0  0  0  0  0  0  0  0  0  0  0
    1.6828   -0.0164   -0.7746 C   0  0  0  0  0  0  0  0  0  0  0  0
    0.3890   -0.5822   -0.7391 C   0  0  0  0  0  0  0  0  0  0  0  0
   -0.8901    2.5883   -0.3939 C   0  0  0  0  0  0  0  0  0  0  0  0
   -0.7142    3.8711    0.1329 C   0  0  0  0  0  0  0  0  0  0  0  0
    0.6878    0.0000    0.0000 Cl  0  0  0  0  0  0  0  0  0  0  0  0
    0.6878    0.0000    0.0000 Cl  0  0  0  0  0  0  0  0  0  0  0  0
    0.1767    6.1568    1.2007 H   0  0  0  0  0  0  0  0  0  0  0  0
   -0.9672    5.7006    2.5252 H   0  0  0  0  0  0  0  0  0  0  0  0
    0.8121    5.4442    2.7234 H   0  0  0  0  0  0  0  0  0  0  0  0
    0.5310    3.0218    3.1918 H   0  0  0  0  0  0  0  0  0  0  0  0
    0.2266    0.7636    2.2594 H   0  0  0  0  0  0  0  0  0  0  0  0
   -3.3059    1.1944   -0.0501 H   0  0  0  0  0  0  0  0  0  0  0  0
   -4.1562   -0.3186    0.2809 H   0  0  0  0  0  0  0  0  0  0  0  0
   -3.7926    0.9187    2.2478 H   0  0  0  0  0  0  0  0  0  0  0  0
   -2.9831   -0.5496    2.3293 H   0  0  0  0  0  0  0  0  0  0  0  0
   -3.3493   -3.3559   -1.6392 H   0  0  0  0  0  0  0  0  0  0  0  0
   -4.2439   -1.9000   -1.2075 H   0  0  0  0  0  0  0  0  0  0  0  0
   -3.8437   -2.4906    1.2896 H   0  0  0  0  0  0  0  0  0  0  0  0
   -5.2607   -4.6333   -0.4138 H   0  0  0  0  0  0  0  0  0  0  0  0
   -5.5172   -4.3163    1.3472 H   0  0  0  0  0  0  0  0  0  0  0  0
   -5.9669   -3.0638    0.1394 H   0  0  0  0  0  0  0  0  0  0  0  0
   -1.8061   -3.8867    1.0480 H   0  0  0  0  0  0  0  0  0  0  0  0
   -2.7271   -5.1064    0.0817 H   0  0  0  0  0  0  0  0  0  0  0  0
   -3.1216   -4.8268    1.8225 H   0  0  0  0  0  0  0  0  0  0  0  0
    1.1261   -3.5722   -2.2181 H   0  0  0  0  0  0  0  0  0  0  0  0
    3.3612   -2.5908   -2.2593 H   0  0  0  0  0  0  0  0  0  0  0  0
    5.4257   -1.6218   -2.2887 H   0  0  0  0  0  0  0  0  0  0  0  0
    7.3133    0.2121   -1.8889 H   0  0  0  0  0  0  0  0  0  0  0  0
    8.0871    3.6706   -0.5312 H   0  0  0  0  0  0  0  0  0  0  0  0
    1.8560    0.9779   -0.3839 H   0  0  0  0  0  0  0  0  0  0  0  0
   -1.2893    2.4718   -1.3940 H   0  0  0  0  0  0  0  0  0  0  0  0
   -0.9885    4.7317   -0.4646 H   0  0  0  0  0  0  0  0  0  0  0  0
   -0.6878    0.0000    0.0000 H   0  0  0  0  0  0  0  0  0  0  0  0
   -0.6878    0.0000    0.0000 H   0  0  0  0  0  0  0  0  0  0  0  0
  1  2  1  0
  2  3  2  0
  3  4  1  0
  4  5  2  0
  5  6  1  0
  6  7  2  0
  7  8  1  0
  8  9  1  0
  7 10  1  0
 10 11  1  0
 11 12  1  0
 12 13  1  0
 12 14  1  0
 10 15  2  0
 15 16  1  0
 16 17  2  0
 17 18  1  0
 18 19  2  0
 19 20  1  0
 20 21  2  0
 21 22  1  0
 22 23  2  0
 23 24  1  0
 24 25  2  0
 24 26  1  0
 23 27  1  0
 19 28  1  0
 28 29  2  0
  5 30  1  0
 30 31  2  0
 31  2  1  0
 29  6  1  0
 29 16  1  0
 27 20  1  0
  1 34  1  0
  1 35  1  0
  1 36  1  0
  3 37  1  0
  4 38  1  0
  8 39  1  0
  8 40  1  0
  9 41  1  0
  9 42  1  0
 11 43  1  0
 11 44  1  0
 12 45  1  0
 13 46  1  0
 13 47  1  0
 13 48  1  0
 14 49  1  0
 14 50  1  0
 14 51  1  0
 17 52  1  0
 18 53  1  0
 21 54  1  0
 22 55  1  0
 26 56  1  0
 28 57  1  0
 30 58  1  0
 31 59  1  0
 32 60  1  0
 33 61  1  0
M  END
$$$$
