
     RDKit          3D

 39 41  0  0  0  0  0  0  0  0999 V2000
    2.0368   -0.6553    1.8761 O   0  0  0  0  0  0  0  0  0  0  0  0
    2.5333   -0.3413    0.7590 C   0  0  0  0  0  0  0  0  0  0  0  0
    1.9138   -0.7568   -0.4260 O   0  0  0  0  0  0  0  0  0  0  0  0
    0.6970   -1.5028   -0.4536 C   0  0  2  0  0  0  0  0  0  0  0  0
    0.3779   -1.9576   -1.8673 C   0  0  0  0  0  0  0  0  0  0  0  0
   -1.0775   -1.9393   -2.0320 N   0  0  0  0  0  0  0  0  0  0  0  0
   -1.6447   -1.2710   -0.8534 C   0  0  2  0  0  0  0  0  0  0  0  0
   -2.6481   -0.2243   -1.2762 C   0  0  0  0  0  0  0  0  0  0  0  0
   -2.4605    0.3954   -2.3596 O   0  0  0  0  0  0  0  0  0  0  0  0
   -3.7785    0.1207   -0.4498 N   0  0  0  0  0  0  0  0  0  0  0  0
   -4.7592    1.1034   -0.8892 C   0  0  0  0  0  0  0  0  0  0  0  0
   -5.9443    1.0412    0.0592 C   0  0  0  0  0  0  0  0  0  0  0  0
   -5.3418    0.4798    1.6747 S   0  0  0  0  0  0  0  0  0  0  0  0
   -3.9920   -0.4374    0.8795 C   0  0  0  0  0  0  0  0  0  0  0  0
   -0.4916   -0.6501   -0.0736 C   0  0  0  0  0  0  0  0  0  0  0  0
    3.7725    0.4641    0.6971 C   0  0  0  0  0  0  0  0  0  0  0  0
    4.4144    0.8880    1.8762 C   0  0  0  0  0  0  0  0  0  0  0  0
    5.5851    1.6500    1.8092 C   0  0  0  0  0  0  0  0  0  0  0  0
    6.1261    1.9965    0.5690 C   0  0  0  0  0  0  0  0  0  0  0  0
    5.4975    1.5817   -0.6072 C   0  0  0  0  0  0  0  0  0  0  0  0
    4.3266    0.8194   -0.5464 C   0  0  0  0  0  0  0  0  0  0  0  0
    0.7667   -2.3911    0.2148 H   0  0  0  0  0  0  0  0  0  0  0  0
    0.8229   -1.2557   -2.6060 H   0  0  0  0  0  0  0  0  0  0  0  0
    0.7932   -2.9733   -2.0554 H   0  0  0  0  0  0  0  0  0  0  0  0
   -1.4254   -2.9273   -2.0615 H   0  0  0  0  0  0  0  0  0  0  0  0
   -2.1403   -2.0323   -0.2090 H   0  0  0  0  0  0  0  0  0  0  0  0
   -5.0973    0.8787   -1.9243 H   0  0  0  0  0  0  0  0  0  0  0  0
   -4.3008    2.1157   -0.8634 H   0  0  0  0  0  0  0  0  0  0  0  0
   -6.4294    2.0356    0.1527 H   0  0  0  0  0  0  0  0  0  0  0  0
   -6.6880    0.3051   -0.3143 H   0  0  0  0  0  0  0  0  0  0  0  0
   -4.2714   -1.5089    0.7997 H   0  0  0  0  0  0  0  0  0  0  0  0
   -3.0777   -0.3249    1.4977 H   0  0  0  0  0  0  0  0  0  0  0  0
   -0.6745   -0.6796    1.0222 H   0  0  0  0  0  0  0  0  0  0  0  0
   -0.3143    0.4030   -0.3911 H   0  0  0  0  0  0  0  0  0  0  0  0
    4.0133    0.6315    2.8487 H   0  0  0  0  0  0  0  0  0  0  0  0
    6.0731    1.9722    2.7201 H   0  0  0  0  0  0  0  0  0  0  0  0
    7.0322    2.5864    0.5195 H   0  0  0  0  0  0  0  0  0  0  0  0
    5.9177    1.8510   -1.5677 H   0  0  0  0  0  0  0  0  0  0  0  0
    3.8570    0.5099   -1.4716 H   0  0  0  0  0  0  0  0  0  0  0  0
  1  2  2  0
  2  3  1  0
  3  4  1  0
  4  5  1  0
  5  6  1  0
  6  7  1  0
  7  8  1  0
  8  9  2  0
  8 10  1  0
 10 11  1  0
 11 12  1  0
 12 13  1  0
 13 14  1  0
  7 15  1  0
  2 16  1  0
 16 17  2  0
 17 18  1  0
 18 19  2  0
 19 20  1  0
 20 21  2  0
 15  4  1  0
 21 16  1  0
 14 10  1  0
  4 22  1  1
  5 23  1  0
  5 24  1  0
  6 25  1  0
  7 26  1  1
 11 27  1  0
 11 28  1  0
 12 29  1  0
 12 30  1  0
 14 31  1  0
 14 32  1  0
 15 33  1  0
 15 34  1  0
 17 35  1  0
 18 36  1  0
 19 37  1  0
 20 38  1  0
 21 39  1  0
M  END
$$$$
