
     RDKit          3D

 38 39  0  0  0  0  0  0  0  0999 V2000
   -2.9480    2.8334   -1.0523 N   0  0  0  0  0  0  0  0  0  0  0  0
   -3.3331    1.7673   -0.8193 C   0  0  0  0  0  0  0  0  0  0  0  0
   -3.8214    0.4095   -0.5231 C   0  0  2  0  0  0  0  0  0  0  0  0
   -4.6630    0.3927    0.7549 C   0  0  0  0  0  0  0  0  0  0  0  0
   -4.2303   -0.8598    1.5127 C   0  0  2  0  0  0  0  0  0  0  0  0
   -4.2080   -0.6340    2.8790 F   0  0  0  0  0  0  0  0  0  0  0  0
   -2.8404   -1.2037    0.9920 C   0  0  0  0  0  0  0  0  0  0  0  0
   -2.7080   -0.4957   -0.2716 N   0  0  0  0  0  0  0  0  0  0  0  0
   -1.6782   -0.7713   -1.2419 C   0  0  0  0  0  0  0  0  0  0  0  0
   -1.8275   -0.3901   -2.4346 O   0  0  0  0  0  0  0  0  0  0  0  0
   -0.3854   -1.4397   -0.8551 C   0  0  0  0  0  0  0  0  0  0  0  0
    0.7056   -0.3980   -0.5508 C   0  0  1  0  0  0  0  0  0  0  0  0
    0.2957    0.4338    0.5864 N   0  0  0  0  0  0  0  0  0  0  0  0
    2.0560   -1.0999   -0.2812 C   0  0  0  0  0  0  0  0  0  0  0  0
    3.1804   -0.1096   -0.1168 C   0  0  0  0  0  0  0  0  0  0  0  0
    3.7662    0.4878   -1.2456 C   0  0  0  0  0  0  0  0  0  0  0  0
    4.7922    1.4257   -1.0937 C   0  0  0  0  0  0  0  0  0  0  0  0
    5.2363    1.7774    0.1838 C   0  0  0  0  0  0  0  0  0  0  0  0
    4.6537    1.1934    1.3120 C   0  0  0  0  0  0  0  0  0  0  0  0
    3.6276    0.2548    1.1647 C   0  0  0  0  0  0  0  0  0  0  0  0
   -4.4193    0.0333   -1.3816 H   0  0  0  0  0  0  0  0  0  0  0  0
   -4.4617    1.2880    1.3867 H   0  0  0  0  0  0  0  0  0  0  0  0
   -5.7490    0.3605    0.5187 H   0  0  0  0  0  0  0  0  0  0  0  0
   -4.9327   -1.6924    1.2870 H   0  0  0  0  0  0  0  0  0  0  0  0
   -2.7560   -2.3011    0.8358 H   0  0  0  0  0  0  0  0  0  0  0  0
   -2.0553   -0.8575    1.6976 H   0  0  0  0  0  0  0  0  0  0  0  0
   -0.5266   -2.1072    0.0200 H   0  0  0  0  0  0  0  0  0  0  0  0
   -0.0576   -2.0819   -1.7018 H   0  0  0  0  0  0  0  0  0  0  0  0
    0.8192    0.2518   -1.4487 H   0  0  0  0  0  0  0  0  0  0  0  0
    0.9300    1.2623    0.6511 H   0  0  0  0  0  0  0  0  0  0  0  0
    0.3909   -0.1119    1.4739 H   0  0  0  0  0  0  0  0  0  0  0  0
    1.9748   -1.7457    0.6212 H   0  0  0  0  0  0  0  0  0  0  0  0
    2.3001   -1.7727   -1.1327 H   0  0  0  0  0  0  0  0  0  0  0  0
    3.4266    0.2281   -2.2407 H   0  0  0  0  0  0  0  0  0  0  0  0
    5.2414    1.8816   -1.9666 H   0  0  0  0  0  0  0  0  0  0  0  0
    6.0298    2.5044    0.2997 H   0  0  0  0  0  0  0  0  0  0  0  0
    4.9954    1.4700    2.3010 H   0  0  0  0  0  0  0  0  0  0  0  0
    3.1797   -0.1836    2.0478 H   0  0  0  0  0  0  0  0  0  0  0  0
  1  2  3  0
  2  3  1  0
  3  4  1  0
  4  5  1  0
  5  6  1  0
  5  7  1  0
  7  8  1  0
  8  9  1  0
  9 10  2  0
  9 11  1  0
 11 12  1  0
 12 13  1  0
 12 14  1  0
 14 15  1  0
 15 16  2  0
 16 17  1  0
 17 18  2  0
 18 19  1  0
 19 20  2  0
  8  3  1  0
 20 15  1  0
  3 21  1  6
  4 22  1  0
  4 23  1  0
  5 24  1  1
  7 25  1  0
  7 26  1  0
 11 27  1  0
 11 28  1  0
 12 29  1  6
 13 30  1  0
 13 31  1  0
 14 32  1  0
 14 33  1  0
 16 34  1  0
 17 35  1  0
 18 36  1  0
 19 37  1  0
 20 38  1  0
M  END
$$$$
