
     RDKit          3D

 40 41  0  0  0  0  0  0  0  0999 V2000
    0.6752   -1.5287    2.4008 N   0  0  0  0  0  0  0  0  0  0  0  0
    1.2174   -0.5404    2.1390 C   0  0  0  0  0  0  0  0  0  0  0  0
    1.9086    0.7177    1.8096 C   0  0  1  0  0  0  0  0  0  0  0  0
    3.2102    0.8407    2.6033 C   0  0  0  0  0  0  0  0  0  0  0  0
    4.3137    0.4076    1.6444 C   0  0  0  0  0  0  0  0  0  0  0  0
    3.7573    0.6633    0.2441 C   0  0  2  0  0  0  0  0  0  0  0  0
    4.2597    1.9381   -0.2963 C   0  0  0  0  0  0  0  0  0  0  0  0
    4.6536    2.9399   -0.7211 N   0  0  0  0  0  0  0  0  0  0  0  0
    2.3086    0.7242    0.4048 N   0  0  0  0  0  0  0  0  0  0  0  0
    1.4062    0.7917   -0.7230 C   0  0  0  0  0  0  0  0  0  0  0  0
    1.8736    0.7529   -1.8936 O   0  0  0  0  0  0  0  0  0  0  0  0
   -0.0857    0.8754   -0.5609 C   0  0  0  0  0  0  0  0  0  0  0  0
   -0.6808   -0.4264   -0.9016 N   0  0  0  0  0  0  0  0  0  0  0  0
   -2.1305   -0.4096   -1.2398 C   0  0  0  0  0  0  0  0  0  0  0  0
   -2.3786    0.3060   -2.5935 C   0  0  0  0  0  0  0  0  0  0  0  0
   -1.5694   -0.2387   -3.6021 O   0  0  0  0  0  0  0  0  0  0  0  0
   -2.9982    0.1874   -0.1172 C   0  0  0  0  0  0  0  0  0  0  0  0
   -3.1943   -0.9354    0.8902 C   0  0  0  0  0  0  0  0  0  0  0  0
   -3.0540   -2.2407    0.1094 C   0  0  0  0  0  0  0  0  0  0  0  0
   -2.6336   -1.8635   -1.3106 C   0  0  0  0  0  0  0  0  0  0  0  0
    1.2511    1.5839    2.0366 H   0  0  0  0  0  0  0  0  0  0  0  0
    3.3710    1.9066    2.8786 H   0  0  0  0  0  0  0  0  0  0  0  0
    3.2196    0.2325    3.5355 H   0  0  0  0  0  0  0  0  0  0  0  0
    4.4944   -0.6828    1.7716 H   0  0  0  0  0  0  0  0  0  0  0  0
    5.2653    0.9482    1.8473 H   0  0  0  0  0  0  0  0  0  0  0  0
    4.0376   -0.1678   -0.4391 H   0  0  0  0  0  0  0  0  0  0  0  0
   -0.4492    1.6779   -1.2320 H   0  0  0  0  0  0  0  0  0  0  0  0
   -0.3525    1.1649    0.4739 H   0  0  0  0  0  0  0  0  0  0  0  0
   -0.5083   -1.0736   -0.0973 H   0  0  0  0  0  0  0  0  0  0  0  0
   -3.4404    0.1854   -2.8989 H   0  0  0  0  0  0  0  0  0  0  0  0
   -2.2188    1.4035   -2.5111 H   0  0  0  0  0  0  0  0  0  0  0  0
   -0.6902    0.2179   -3.5416 H   0  0  0  0  0  0  0  0  0  0  0  0
   -3.9971    0.4679   -0.5217 H   0  0  0  0  0  0  0  0  0  0  0  0
   -2.5730    1.0939    0.3567 H   0  0  0  0  0  0  0  0  0  0  0  0
   -4.1911   -0.8618    1.3771 H   0  0  0  0  0  0  0  0  0  0  0  0
   -2.4059   -0.8756    1.6728 H   0  0  0  0  0  0  0  0  0  0  0  0
   -2.2789   -2.8843    0.5805 H   0  0  0  0  0  0  0  0  0  0  0  0
   -4.0175   -2.7959    0.0951 H   0  0  0  0  0  0  0  0  0  0  0  0
   -3.5237   -1.9479   -1.9739 H   0  0  0  0  0  0  0  0  0  0  0  0
   -1.8514   -2.5544   -1.6961 H   0  0  0  0  0  0  0  0  0  0  0  0
  1  2  3  0
  2  3  1  0
  3  4  1  0
  4  5  1  0
  5  6  1  0
  6  7  1  0
  7  8  3  0
  6  9  1  0
  9 10  1  0
 10 11  2  0
 10 12  1  0
 12 13  1  0
 13 14  1  0
 14 15  1  0
 15 16  1  0
 14 17  1  0
 17 18  1  0
 18 19  1  0
 19 20  1  0
  9  3  1  0
 20 14  1  0
  3 21  1  6
  4 22  1  0
  4 23  1  0
  5 24  1  0
  5 25  1  0
  6 26  1  6
 12 27  1  0
 12 28  1  0
 13 29  1  0
 15 30  1  0
 15 31  1  0
 16 32  1  0
 17 33  1  0
 17 34  1  0
 18 35  1  0
 18 36  1  0
 19 37  1  0
 19 38  1  0
 20 39  1  0
 20 40  1  0
M  END
$$$$
