
     RDKit          3D

 58 59  0  0  0  0  0  0  0  0999 V2000
   -8.9169    0.1941   -2.1546 C   0  0  0  0  0  0  0  0  0  0  0  0
   -7.7947    0.5900   -1.2551 C   0  0  0  0  0  0  0  0  0  0  0  0
   -7.8109    1.6627   -0.3696 C   0  0  0  0  0  0  0  0  0  0  0  0
   -6.5921    1.5567    0.2549 C   0  0  0  0  0  0  0  0  0  0  0  0
   -6.0806    2.3643    1.2096 N   0  0  0  0  0  0  0  0  0  0  0  0
   -4.8349    2.1022    1.6920 C   0  0  0  0  0  0  0  0  0  0  0  0
   -4.0804    1.0101    1.2038 C   0  0  0  0  0  0  0  0  0  0  0  0
   -2.7033    0.8351    1.7083 C   0  0  0  0  0  0  0  0  0  0  0  0
   -2.4969    0.8422    2.9526 O   0  0  0  0  0  0  0  0  0  0  0  0
   -1.6016    0.7152    0.7981 N   0  0  0  0  0  0  0  0  0  0  0  0
   -0.2530    0.4001    1.2835 C   0  0  0  0  0  0  0  0  0  0  0  0
    0.8265    0.2929    0.1629 C   0  0  0  0  0  0  0  0  0  0  0  0
    0.9432    1.6562   -0.5627 C   0  0  0  0  0  0  0  0  0  0  0  0
    0.4339   -0.8221   -0.8393 C   0  0  0  0  0  0  0  0  0  0  0  0
    2.1140   -0.0270    0.8364 N   0  0  0  0  0  0  0  0  0  0  0  0
    3.2551   -0.3088   -0.0537 C   0  0  0  0  0  0  0  0  0  0  0  0
    4.5463   -0.3059    0.7215 C   0  0  0  0  0  0  0  0  0  0  0  0
    4.5706    0.1648    1.8921 O   0  0  0  0  0  0  0  0  0  0  0  0
    5.7654   -0.7877    0.1247 N   0  0  0  0  0  0  0  0  0  0  0  0
    5.8417   -1.3706   -1.2060 C   0  0  0  0  0  0  0  0  0  0  0  0
    7.3174   -1.6642   -1.4428 C   0  0  0  0  0  0  0  0  0  0  0  0
    7.9679   -1.6499   -0.0620 C   0  0  0  0  0  0  0  0  0  0  0  0
    7.0437   -0.8110    0.8209 C   0  0  1  0  0  0  0  0  0  0  0  0
    7.5573    0.5603    0.9742 C   0  0  0  0  0  0  0  0  0  0  0  0
    7.9602    1.6384    1.0947 N   0  0  0  0  0  0  0  0  0  0  0  0
   -4.6802    0.1473    0.2399 C   0  0  0  0  0  0  0  0  0  0  0  0
   -3.9983   -1.0976   -0.3013 C   0  0  0  0  0  0  0  0  0  0  0  0
   -3.1329   -1.6490    0.6260 F   0  0  0  0  0  0  0  0  0  0  0  0
   -3.2983   -0.7758   -1.4482 F   0  0  0  0  0  0  0  0  0  0  0  0
   -4.9341   -2.0677   -0.6121 F   0  0  0  0  0  0  0  0  0  0  0  0
   -5.9187    0.4987   -0.2129 N   0  0  0  0  0  0  0  0  0  0  0  0
   -6.6424   -0.1115   -1.1378 N   0  0  0  0  0  0  0  0  0  0  0  0
    0.6878    0.0000    0.0000 Cl  0  0  0  0  0  0  0  0  0  0  0  0
   -9.4330    1.0985   -2.5401 H   0  0  0  0  0  0  0  0  0  0  0  0
   -9.6414   -0.4285   -1.5897 H   0  0  0  0  0  0  0  0  0  0  0  0
   -8.5261   -0.3897   -3.0142 H   0  0  0  0  0  0  0  0  0  0  0  0
   -8.5902    2.3960   -0.2094 H   0  0  0  0  0  0  0  0  0  0  0  0
   -4.4148    2.7637    2.4394 H   0  0  0  0  0  0  0  0  0  0  0  0
   -1.7913    0.8711   -0.2148 H   0  0  0  0  0  0  0  0  0  0  0  0
    0.0582    1.1840    2.0091 H   0  0  0  0  0  0  0  0  0  0  0  0
   -0.3004   -0.5628    1.8387 H   0  0  0  0  0  0  0  0  0  0  0  0
    1.5792    1.5858   -1.4680 H   0  0  0  0  0  0  0  0  0  0  0  0
    1.3802    2.4165    0.1196 H   0  0  0  0  0  0  0  0  0  0  0  0
   -0.0396    2.0310   -0.9101 H   0  0  0  0  0  0  0  0  0  0  0  0
   -0.5585   -0.6369   -1.2949 H   0  0  0  0  0  0  0  0  0  0  0  0
    1.1572   -0.8788   -1.6792 H   0  0  0  0  0  0  0  0  0  0  0  0
    0.4054   -1.8080   -0.3281 H   0  0  0  0  0  0  0  0  0  0  0  0
    1.9837   -0.8724    1.4428 H   0  0  0  0  0  0  0  0  0  0  0  0
    3.3504    0.4575   -0.8464 H   0  0  0  0  0  0  0  0  0  0  0  0
    3.1283   -1.3066   -0.5256 H   0  0  0  0  0  0  0  0  0  0  0  0
    5.4585   -0.6569   -1.9670 H   0  0  0  0  0  0  0  0  0  0  0  0
    5.2534   -2.3132   -1.2360 H   0  0  0  0  0  0  0  0  0  0  0  0
    7.7620   -0.8590   -2.0683 H   0  0  0  0  0  0  0  0  0  0  0  0
    7.4616   -2.6432   -1.9493 H   0  0  0  0  0  0  0  0  0  0  0  0
    9.0087   -1.2579   -0.1077 H   0  0  0  0  0  0  0  0  0  0  0  0
    8.0022   -2.6898    0.3317 H   0  0  0  0  0  0  0  0  0  0  0  0
    6.9333   -1.2829    1.8215 H   0  0  0  0  0  0  0  0  0  0  0  0
   -0.6878    0.0000    0.0000 H   0  0  0  0  0  0  0  0  0  0  0  0
  1  2  1  0
  2  3  1  0
  3  4  2  0
  4  5  1  0
  5  6  2  0
  6  7  1  0
  7  8  1  0
  8  9  2  0
  8 10  1  0
 10 11  1  0
 11 12  1  0
 12 13  1  0
 12 14  1  0
 12 15  1  0
 15 16  1  0
 16 17  1  0
 17 18  2  0
 17 19  1  0
 19 20  1  0
 20 21  1  0
 21 22  1  0
 22 23  1  0
 23 24  1  0
 24 25  3  0
  7 26  2  0
 26 27  1  0
 27 28  1  0
 27 29  1  0
 27 30  1  0
 26 31  1  0
 31 32  1  0
 32  2  2  0
 31  4  1  0
 23 19  1  0
  1 34  1  0
  1 35  1  0
  1 36  1  0
  3 37  1  0
  6 38  1  0
 10 39  1  0
 11 40  1  0
 11 41  1  0
 13 42  1  0
 13 43  1  0
 13 44  1  0
 14 45  1  0
 14 46  1  0
 14 47  1  0
 15 48  1  0
 16 49  1  0
 16 50  1  0
 20 51  1  0
 20 52  1  0
 21 53  1  0
 21 54  1  0
 22 55  1  0
 22 56  1  0
 23 57  1  1
 33 58  1  0
M  END
$$$$
