
     RDKit          3D

 65 69  0  0  0  0  0  0  0  0999 V2000
    3.0455    4.9437   -1.4942 C   0  0  0  0  0  0  0  0  0  0  0  0
    2.8045    3.5015   -1.5218 C   0  0  0  0  0  0  0  0  0  0  0  0
    2.6057    2.3130   -1.5421 C   0  0  0  0  0  0  0  0  0  0  0  0
    2.3639    0.8676   -1.5604 C   0  0  0  0  0  0  0  0  0  0  0  0
    1.8623    0.4244   -0.2575 N   0  0  0  0  0  0  0  0  0  0  0  0
    2.5352   -0.2590    0.7076 C   0  0  0  0  0  0  0  0  0  0  0  0
    3.9212   -0.6157    0.6146 N   0  0  0  0  0  0  0  0  0  0  0  0
    4.9440    0.4356    0.5800 C   0  0  0  0  0  0  0  0  0  0  0  0
    6.0660    0.0912   -0.4153 C   0  0  0  0  0  0  0  0  0  0  0  0
    6.2884   -1.4245   -0.5985 C   0  0  0  0  0  0  0  0  0  0  0  0
    5.8110   -2.2491    0.6097 C   0  0  0  0  0  0  0  0  0  0  0  0
    6.5694   -1.8904    1.8110 N   0  0  0  0  0  0  0  0  0  0  0  0
    4.3012   -2.0188    0.8271 C   0  0  0  0  0  0  0  0  0  0  0  0
    1.7661   -0.6035    1.7721 N   0  0  0  0  0  0  0  0  0  0  0  0
    0.5657   -0.0862    1.4455 C   0  0  0  0  0  0  0  0  0  0  0  0
    0.6150    0.5305    0.2411 C   0  0  0  0  0  0  0  0  0  0  0  0
   -0.5206    1.1397   -0.2815 C   0  0  0  0  0  0  0  0  0  0  0  0
   -0.4745    1.7213   -1.3996 O   0  0  0  0  0  0  0  0  0  0  0  0
   -1.6846    1.1004    0.4568 N   0  0  0  0  0  0  0  0  0  0  0  0
   -2.9232    1.7157   -0.0685 C   0  0  0  0  0  0  0  0  0  0  0  0
   -3.8552    0.6518   -0.6295 C   0  0  0  0  0  0  0  0  0  0  0  0
   -3.4543    0.0334   -1.8147 C   0  0  0  0  0  0  0  0  0  0  0  0
   -4.2186   -0.9711   -2.3955 C   0  0  0  0  0  0  0  0  0  0  0  0
   -3.8007   -1.4917   -3.4666 O   0  0  0  0  0  0  0  0  0  0  0  0
   -5.3938   -1.3852   -1.8195 N   0  0  0  0  0  0  0  0  0  0  0  0
   -6.1763   -2.4609   -2.4648 C   0  0  0  0  0  0  0  0  0  0  0  0
   -5.8381   -0.7967   -0.6491 C   0  0  0  0  0  0  0  0  0  0  0  0
   -7.0528   -1.2019   -0.0396 C   0  0  0  0  0  0  0  0  0  0  0  0
   -7.5022   -0.6080    1.1361 C   0  0  0  0  0  0  0  0  0  0  0  0
   -6.7622    0.4011    1.7349 C   0  0  0  0  0  0  0  0  0  0  0  0
   -5.5646    0.8261    1.1656 C   0  0  0  0  0  0  0  0  0  0  0  0
   -5.0745    0.2412   -0.0268 C   0  0  0  0  0  0  0  0  0  0  0  0
   -1.7022    0.4674    1.6899 C   0  0  0  0  0  0  0  0  0  0  0  0
   -2.7628    0.4584    2.3750 O   0  0  0  0  0  0  0  0  0  0  0  0
   -0.5744   -0.1507    2.1839 N   0  0  0  0  0  0  0  0  0  0  0  0
   -0.5802   -0.7983    3.5027 C   0  0  0  0  0  0  0  0  0  0  0  0
    2.1482    5.4608   -1.0964 H   0  0  0  0  0  0  0  0  0  0  0  0
    3.2545    5.3036   -2.5226 H   0  0  0  0  0  0  0  0  0  0  0  0
    3.9166    5.1604   -0.8422 H   0  0  0  0  0  0  0  0  0  0  0  0
    1.6294    0.6228   -2.3554 H   0  0  0  0  0  0  0  0  0  0  0  0
    3.3083    0.3433   -1.8133 H   0  0  0  0  0  0  0  0  0  0  0  0
    5.3736    0.5450    1.5991 H   0  0  0  0  0  0  0  0  0  0  0  0
    4.5016    1.4184    0.3131 H   0  0  0  0  0  0  0  0  0  0  0  0
    5.8302    0.5398   -1.4048 H   0  0  0  0  0  0  0  0  0  0  0  0
    7.0092    0.5612   -0.0609 H   0  0  0  0  0  0  0  0  0  0  0  0
    7.3652   -1.6230   -0.7915 H   0  0  0  0  0  0  0  0  0  0  0  0
    5.7302   -1.7643   -1.4992 H   0  0  0  0  0  0  0  0  0  0  0  0
    5.9763   -3.3287    0.3898 H   0  0  0  0  0  0  0  0  0  0  0  0
    7.5806   -2.0916    1.6343 H   0  0  0  0  0  0  0  0  0  0  0  0
    6.2812   -2.5313    2.5858 H   0  0  0  0  0  0  0  0  0  0  0  0
    4.0006   -2.3426    1.8473 H   0  0  0  0  0  0  0  0  0  0  0  0
    3.7445   -2.6480    0.0982 H   0  0  0  0  0  0  0  0  0  0  0  0
   -3.3765    2.3584    0.7056 H   0  0  0  0  0  0  0  0  0  0  0  0
   -2.6984    2.4409   -0.8805 H   0  0  0  0  0  0  0  0  0  0  0  0
   -2.5330    0.3333   -2.2994 H   0  0  0  0  0  0  0  0  0  0  0  0
   -5.7052   -2.8508   -3.3905 H   0  0  0  0  0  0  0  0  0  0  0  0
   -6.2797   -3.3220   -1.7707 H   0  0  0  0  0  0  0  0  0  0  0  0
   -7.1801   -2.0795   -2.7496 H   0  0  0  0  0  0  0  0  0  0  0  0
   -7.6739   -1.9798   -0.4592 H   0  0  0  0  0  0  0  0  0  0  0  0
   -8.4325   -0.9326    1.5847 H   0  0  0  0  0  0  0  0  0  0  0  0
   -7.1189    0.8594    2.6487 H   0  0  0  0  0  0  0  0  0  0  0  0
   -5.0478    1.6121    1.6877 H   0  0  0  0  0  0  0  0  0  0  0  0
    0.2352   -1.5476    3.5906 H   0  0  0  0  0  0  0  0  0  0  0  0
   -0.4522   -0.0305    4.2943 H   0  0  0  0  0  0  0  0  0  0  0  0
   -1.5363   -1.3395    3.6685 H   0  0  0  0  0  0  0  0  0  0  0  0
  1  2  1  0
  2  3  3  0
  3  4  1  0
  4  5  1  0
  5  6  1  0
  6  7  1  0
  7  8  1  0
  8  9  1  0
  9 10  1  0
 10 11  1  0
 11 12  1  0
 11 13  1  0
  6 14  2  0
 14 15  1  0
 15 16  2  0
 16 17  1  0
 17 18  2  0
 17 19  1  0
 19 20  1  0
 20 21  1  0
 21 22  2  0
 22 23  1  0
 23 24  2  0
 23 25  1  0
 25 26  1  0
 25 27  1  0
 27 28  2  0
 28 29  1  0
 29 30  2  0
 30 31  1  0
 31 32  2  0
 19 33  1  0
 33 34  2  0
 33 35  1  0
 35 36  1  0
 16  5  1  0
 32 21  1  0
 13  7  1  0
 35 15  1  0
 32 27  1  0
  1 37  1  0
  1 38  1  0
  1 39  1  0
  4 40  1  0
  4 41  1  0
  8 42  1  0
  8 43  1  0
  9 44  1  0
  9 45  1  0
 10 46  1  0
 10 47  1  0
 11 48  1  0
 12 49  1  0
 12 50  1  0
 13 51  1  0
 13 52  1  0
 20 53  1  0
 20 54  1  0
 22 55  1  0
 26 56  1  0
 26 57  1  0
 26 58  1  0
 28 59  1  0
 29 60  1  0
 30 61  1  0
 31 62  1  0
 36 63  1  0
 36 64  1  0
 36 65  1  0
M  END
$$$$
