
     RDKit          3D

 57 60  0  0  0  0  0  0  0  0999 V2000
    3.7356   -1.8909    0.3027 N   0  0  0  0  0  0  0  0  0  0  0  0
    3.3286   -0.7380    1.1136 C   0  0  1  0  0  0  0  0  0  0  0  0
    2.8721   -1.1755    2.5241 C   0  0  0  0  0  0  0  0  0  0  0  0
    1.6339   -2.0338    2.4741 C   0  0  0  0  0  0  0  0  0  0  0  0
    1.7059   -3.2122    2.9186 O   0  0  0  0  0  0  0  0  0  0  0  0
    0.3972   -1.5666    1.8905 N   0  0  0  0  0  0  0  0  0  0  0  0
   -0.0262   -0.1543    2.0073 C   0  0  0  0  0  0  0  0  0  0  0  0
   -0.6049    0.3622    0.6788 C   0  0  0  0  0  0  0  0  0  0  0  0
   -1.5396   -0.6544    0.0963 C   0  0  0  0  0  0  0  0  0  0  0  0
   -1.4987   -1.9830    0.4122 C   0  0  0  0  0  0  0  0  0  0  0  0
   -2.4029   -2.6630   -0.3163 N   0  0  0  0  0  0  0  0  0  0  0  0
   -2.9653   -1.7114   -1.1006 C   0  0  0  0  0  0  0  0  0  0  0  0
   -4.0674   -2.0246   -2.0726 C   0  0  0  0  0  0  0  0  0  0  0  0
   -3.7629   -1.5190   -3.3220 F   0  0  0  0  0  0  0  0  0  0  0  0
   -4.2284   -3.3945   -2.1796 F   0  0  0  0  0  0  0  0  0  0  0  0
   -5.2529   -1.4732   -1.6264 F   0  0  0  0  0  0  0  0  0  0  0  0
   -2.4524   -0.4714   -0.8772 N   0  0  0  0  0  0  0  0  0  0  0  0
   -2.8127    0.7947   -1.5272 C   0  0  0  0  0  0  0  0  0  0  0  0
   -4.1502    1.2892   -1.0412 C   0  0  0  0  0  0  0  0  0  0  0  0
   -4.3813    1.4831    0.3317 C   0  0  0  0  0  0  0  0  0  0  0  0
   -5.6196    1.9531    0.7791 C   0  0  0  0  0  0  0  0  0  0  0  0
   -6.6333    2.2415   -0.1388 C   0  0  0  0  0  0  0  0  0  0  0  0
   -7.8334    2.6973    0.2971 F   0  0  0  0  0  0  0  0  0  0  0  0
   -6.4081    2.0630   -1.5066 C   0  0  0  0  0  0  0  0  0  0  0  0
   -5.1711    1.5932   -1.9584 C   0  0  0  0  0  0  0  0  0  0  0  0
   -0.5941   -2.5667    1.4498 C   0  0  0  0  0  0  0  0  0  0  0  0
    4.4890    0.2684    1.2138 C   0  0  0  0  0  0  0  0  0  0  0  0
    4.8495    0.8257   -0.1415 C   0  0  0  0  0  0  0  0  0  0  0  0
    4.0923    1.8772   -0.6863 C   0  0  0  0  0  0  0  0  0  0  0  0
    4.3943    2.3824   -1.9545 C   0  0  0  0  0  0  0  0  0  0  0  0
    3.6605    3.3985   -2.4715 F   0  0  0  0  0  0  0  0  0  0  0  0
    5.4492    1.8379   -2.6914 C   0  0  0  0  0  0  0  0  0  0  0  0
    6.2012    0.7853   -2.1631 C   0  0  0  0  0  0  0  0  0  0  0  0
    5.9037    0.2748   -0.8951 C   0  0  0  0  0  0  0  0  0  0  0  0
    6.6400   -0.7558   -0.4075 F   0  0  0  0  0  0  0  0  0  0  0  0
    2.8983   -2.4868    0.1099 H   0  0  0  0  0  0  0  0  0  0  0  0
    4.4233   -2.4707    0.8371 H   0  0  0  0  0  0  0  0  0  0  0  0
    2.4820   -0.2283    0.6045 H   0  0  0  0  0  0  0  0  0  0  0  0
    3.6951   -1.7396    3.0165 H   0  0  0  0  0  0  0  0  0  0  0  0
    2.6799   -0.2914    3.1666 H   0  0  0  0  0  0  0  0  0  0  0  0
    0.8076    0.5113    2.3023 H   0  0  0  0  0  0  0  0  0  0  0  0
   -0.8031   -0.0787    2.7991 H   0  0  0  0  0  0  0  0  0  0  0  0
    0.2190    0.5435   -0.0434 H   0  0  0  0  0  0  0  0  0  0  0  0
   -1.1370    1.3191    0.8612 H   0  0  0  0  0  0  0  0  0  0  0  0
   -2.8109    0.6570   -2.6287 H   0  0  0  0  0  0  0  0  0  0  0  0
   -2.0486    1.5721   -1.3171 H   0  0  0  0  0  0  0  0  0  0  0  0
   -3.6069    1.2670    1.0559 H   0  0  0  0  0  0  0  0  0  0  0  0
   -5.7919    2.0947    1.8383 H   0  0  0  0  0  0  0  0  0  0  0  0
   -7.1916    2.2894   -2.2183 H   0  0  0  0  0  0  0  0  0  0  0  0
   -5.0132    1.4614   -3.0215 H   0  0  0  0  0  0  0  0  0  0  0  0
   -0.0803   -3.4475    1.0072 H   0  0  0  0  0  0  0  0  0  0  0  0
   -1.1986   -2.8980    2.3205 H   0  0  0  0  0  0  0  0  0  0  0  0
    4.1947    1.1104    1.8787 H   0  0  0  0  0  0  0  0  0  0  0  0
    5.3719   -0.2158    1.6857 H   0  0  0  0  0  0  0  0  0  0  0  0
    3.2663    2.3016   -0.1284 H   0  0  0  0  0  0  0  0  0  0  0  0
    5.6825    2.2281   -3.6737 H   0  0  0  0  0  0  0  0  0  0  0  0
    7.0138    0.3623   -2.7396 H   0  0  0  0  0  0  0  0  0  0  0  0
  1  2  1  0
  2  3  1  0
  3  4  1  0
  4  5  2  0
  4  6  1  0
  6  7  1  0
  7  8  1  0
  8  9  1  0
  9 10  2  0
 10 11  1  0
 11 12  2  0
 12 13  1  0
 13 14  1  0
 13 15  1  0
 13 16  1  0
 12 17  1  0
 17 18  1  0
 18 19  1  0
 19 20  2  0
 20 21  1  0
 21 22  2  0
 22 23  1  0
 22 24  1  0
 24 25  2  0
 10 26  1  0
  2 27  1  0
 27 28  1  0
 28 29  2  0
 29 30  1  0
 30 31  1  0
 30 32  2  0
 32 33  1  0
 33 34  2  0
 34 35  1  0
 26  6  1  0
 34 28  1  0
 17  9  1  0
 25 19  1  0
  1 36  1  0
  1 37  1  0
  2 38  1  6
  3 39  1  0
  3 40  1  0
  7 41  1  0
  7 42  1  0
  8 43  1  0
  8 44  1  0
 18 45  1  0
 18 46  1  0
 20 47  1  0
 21 48  1  0
 24 49  1  0
 25 50  1  0
 26 51  1  0
 26 52  1  0
 27 53  1  0
 27 54  1  0
 29 55  1  0
 32 56  1  0
 33 57  1  0
M  END
$$$$
