
     RDKit          3D

 72 76  0  0  0  0  0  0  0  0999 V2000
   10.8266   -0.3394   -1.1780 C   0  0  0  0  0  0  0  0  0  0  0  0
    9.7975    0.0609   -0.2789 O   0  0  0  0  0  0  0  0  0  0  0  0
    8.4485    0.2200   -0.6342 C   0  0  0  0  0  0  0  0  0  0  0  0
    7.9899   -0.0060   -1.9445 C   0  0  0  0  0  0  0  0  0  0  0  0
    6.6405    0.1591   -2.2597 C   0  0  0  0  0  0  0  0  0  0  0  0
    5.7182    0.5407   -1.2759 C   0  0  0  0  0  0  0  0  0  0  0  0
    4.2964    0.7113   -1.6638 C   0  0  0  0  0  0  0  0  0  0  0  0
    3.2758    0.6278   -0.7978 C   0  0  0  0  0  0  0  0  0  0  0  0
    1.8669    0.7848   -1.2249 C   0  0  0  0  0  0  0  0  0  0  0  0
    1.5939    0.8844   -2.4518 O   0  0  0  0  0  0  0  0  0  0  0  0
    0.7617    0.8081   -0.2373 C   0  0  0  0  0  0  0  0  0  0  0  0
    0.9062    1.1232    1.0560 C   0  0  0  0  0  0  0  0  0  0  0  0
   -0.4017    1.1083    1.7855 C   0  0  0  0  0  0  0  0  0  0  0  0
   -1.2507    0.3055    0.8080 C   0  0  1  0  0  0  0  0  0  0  0  0
   -2.7859    0.3516    0.8642 C   0  0  2  0  0  0  0  0  0  0  0  0
   -3.2863   -0.0171    2.2670 C   0  0  0  0  0  0  0  0  0  0  0  0
   -4.7650   -0.2843    2.3016 C   0  0  0  0  0  0  0  0  0  0  0  0
   -5.4783   -0.7028    1.2314 C   0  0  0  0  0  0  0  0  0  0  0  0
   -6.9432   -1.0451    1.4319 C   0  0  0  0  0  0  0  0  0  0  0  0
   -7.3155   -2.3153    0.6551 C   0  0  1  0  0  0  0  0  0  0  0  0
   -8.6885   -2.5886    0.7798 O   0  0  0  0  0  0  0  0  0  0  0  0
   -6.9183   -2.1968   -0.8232 C   0  0  0  0  0  0  0  0  0  0  0  0
   -5.4105   -1.9402   -0.9646 C   0  0  0  0  0  0  0  0  0  0  0  0
   -4.9132   -0.6721   -0.2013 C   0  0  1  0  0  0  0  0  0  0  0  0
   -5.4590    0.5994   -0.9086 C   0  0  0  0  0  0  0  0  0  0  0  0
   -3.3368   -0.6823   -0.1700 C   0  0  1  0  0  0  0  0  0  0  0  0
   -2.6628   -0.5728   -1.5848 C   0  0  0  0  0  0  0  0  0  0  0  0
   -1.1183   -0.4249   -1.5500 C   0  0  0  0  0  0  0  0  0  0  0  0
   -0.7022    0.6930   -0.5721 C   0  0  2  0  0  0  0  0  0  0  0  0
   -1.1693    2.0872   -1.0859 C   0  0  0  0  0  0  0  0  0  0  0  0
    6.1792    0.7860    0.0318 C   0  0  0  0  0  0  0  0  0  0  0  0
    7.5406    0.6214    0.3571 C   0  0  0  0  0  0  0  0  0  0  0  0
    8.0306    0.8506    1.6531 O   0  0  0  0  0  0  0  0  0  0  0  0
    7.2317    1.2564    2.7599 C   0  0  0  0  0  0  0  0  0  0  0  0
   10.9214    0.3982   -2.0027 H   0  0  0  0  0  0  0  0  0  0  0  0
   11.7896   -0.3844   -0.6295 H   0  0  0  0  0  0  0  0  0  0  0  0
   10.6042   -1.3469   -1.5889 H   0  0  0  0  0  0  0  0  0  0  0  0
    8.6693   -0.3103   -2.7288 H   0  0  0  0  0  0  0  0  0  0  0  0
    6.3133   -0.0224   -3.2765 H   0  0  0  0  0  0  0  0  0  0  0  0
    4.0839    0.8706   -2.7148 H   0  0  0  0  0  0  0  0  0  0  0  0
    3.4700    0.3977    0.2394 H   0  0  0  0  0  0  0  0  0  0  0  0
    1.8433    1.3898    1.5253 H   0  0  0  0  0  0  0  0  0  0  0  0
   -0.7899    2.1407    1.9177 H   0  0  0  0  0  0  0  0  0  0  0  0
   -0.3070    0.5936    2.7657 H   0  0  0  0  0  0  0  0  0  0  0  0
   -0.9691   -0.7604    1.0095 H   0  0  0  0  0  0  0  0  0  0  0  0
   -3.1358    1.3783    0.6429 H   0  0  0  0  0  0  0  0  0  0  0  0
   -3.0567    0.8115    2.9711 H   0  0  0  0  0  0  0  0  0  0  0  0
   -2.7689   -0.9301    2.6345 H   0  0  0  0  0  0  0  0  0  0  0  0
   -5.2334   -0.2633    3.2818 H   0  0  0  0  0  0  0  0  0  0  0  0
   -7.1739   -1.2191    2.5063 H   0  0  0  0  0  0  0  0  0  0  0  0
   -7.5682   -0.1905    1.0967 H   0  0  0  0  0  0  0  0  0  0  0  0
   -6.7607   -3.1713    1.0998 H   0  0  0  0  0  0  0  0  0  0  0  0
   -9.1855   -1.8296    0.3755 H   0  0  0  0  0  0  0  0  0  0  0  0
   -7.4946   -1.3856   -1.3172 H   0  0  0  0  0  0  0  0  0  0  0  0
   -7.1704   -3.1465   -1.3431 H   0  0  0  0  0  0  0  0  0  0  0  0
   -5.1795   -1.8548   -2.0481 H   0  0  0  0  0  0  0  0  0  0  0  0
   -4.8761   -2.8409   -0.5887 H   0  0  0  0  0  0  0  0  0  0  0  0
   -5.0300    1.5262   -0.4806 H   0  0  0  0  0  0  0  0  0  0  0  0
   -5.2536    0.5821   -1.9980 H   0  0  0  0  0  0  0  0  0  0  0  0
   -6.5593    0.6825   -0.8045 H   0  0  0  0  0  0  0  0  0  0  0  0
   -3.0326   -1.6848    0.2130 H   0  0  0  0  0  0  0  0  0  0  0  0
   -3.0762    0.2777   -2.1576 H   0  0  0  0  0  0  0  0  0  0  0  0
   -2.8938   -1.4866   -2.1715 H   0  0  0  0  0  0  0  0  0  0  0  0
   -0.7557   -0.1986   -2.5752 H   0  0  0  0  0  0  0  0  0  0  0  0
   -0.6628   -1.3928   -1.2441 H   0  0  0  0  0  0  0  0  0  0  0  0
   -2.2606    2.1448   -1.2582 H   0  0  0  0  0  0  0  0  0  0  0  0
   -0.9057    2.8934   -0.3690 H   0  0  0  0  0  0  0  0  0  0  0  0
   -0.6740    2.3203   -2.0521 H   0  0  0  0  0  0  0  0  0  0  0  0
    5.4903    1.1290    0.7889 H   0  0  0  0  0  0  0  0  0  0  0  0
    6.7638    2.2419    2.5523 H   0  0  0  0  0  0  0  0  0  0  0  0
    6.4491    0.4959    2.9656 H   0  0  0  0  0  0  0  0  0  0  0  0
    7.8774    1.3526    3.6566 H   0  0  0  0  0  0  0  0  0  0  0  0
  1  2  1  0
  2  3  1  0
  3  4  2  0
  4  5  1  0
  5  6  2  0
  6  7  1  0
  7  8  2  0
  8  9  1  0
  9 10  2  0
  9 11  1  0
 11 12  2  0
 12 13  1  0
 13 14  1  0
 14 15  1  0
 15 16  1  0
 16 17  1  0
 17 18  2  0
 18 19  1  0
 19 20  1  0
 20 21  1  0
 20 22  1  0
 22 23  1  0
 23 24  1  0
 24 25  1  6
 24 26  1  0
 26 27  1  0
 27 28  1  0
 28 29  1  0
 29 30  1  6
  6 31  1  0
 31 32  2  0
 32 33  1  0
 33 34  1  0
 32  3  1  0
 29 11  1  0
 29 14  1  0
 26 15  1  0
 24 18  1  0
  1 35  1  0
  1 36  1  0
  1 37  1  0
  4 38  1  0
  5 39  1  0
  7 40  1  0
  8 41  1  0
 12 42  1  0
 13 43  1  0
 13 44  1  0
 14 45  1  1
 15 46  1  6
 16 47  1  0
 16 48  1  0
 17 49  1  0
 19 50  1  0
 19 51  1  0
 20 52  1  1
 21 53  1  0
 22 54  1  0
 22 55  1  0
 23 56  1  0
 23 57  1  0
 25 58  1  0
 25 59  1  0
 25 60  1  0
 26 61  1  1
 27 62  1  0
 27 63  1  0
 28 64  1  0
 28 65  1  0
 30 66  1  0
 30 67  1  0
 30 68  1  0
 31 69  1  0
 34 70  1  0
 34 71  1  0
 34 72  1  0
M  END
$$$$
