
     RDKit          3D

 31 32  0  0  0  0  0  0  0  0999 V2000
   -3.8452    1.8554    1.6202 N   0  0  0  0  0  0  0  0  0  0  0  0
   -3.4637    1.3405    0.6566 C   0  0  0  0  0  0  0  0  0  0  0  0
   -2.9775    0.6857   -0.5687 C   0  0  2  0  0  0  0  0  0  0  0  0
   -3.8643   -0.4982   -0.9535 C   0  0  0  0  0  0  0  0  0  0  0  0
   -3.1261   -1.7429   -0.4698 C   0  0  0  0  0  0  0  0  0  0  0  0
   -1.6640   -1.3351   -0.3388 C   0  0  0  0  0  0  0  0  0  0  0  0
   -1.6562    0.1203   -0.3360 N   0  0  0  0  0  0  0  0  0  0  0  0
   -0.4614    0.9243   -0.2605 C   0  0  0  0  0  0  0  0  0  0  0  0
   -0.5508    2.1763   -0.3929 O   0  0  0  0  0  0  0  0  0  0  0  0
    0.9036    0.2914   -0.1089 C   0  0  1  0  0  0  0  0  0  0  0  0
    1.4049   -0.0768   -1.4352 N   0  0  0  0  0  0  0  0  0  0  0  0
    1.8831    1.2303    0.6326 C   0  0  0  0  0  0  0  0  0  0  0  0
    3.1734    0.5376    0.9596 C   0  0  0  0  0  0  0  0  0  0  0  0
    4.3327    0.6904    0.2037 C   0  0  0  0  0  0  0  0  0  0  0  0
    5.5141   -0.2901    0.8858 S   0  0  0  0  0  0  0  0  0  0  0  0
    4.5094   -0.8682    2.1021 C   0  0  0  0  0  0  0  0  0  0  0  0
    3.2748   -0.3298    2.0038 N   0  0  0  0  0  0  0  0  0  0  0  0
   -2.9457    1.4247   -1.3990 H   0  0  0  0  0  0  0  0  0  0  0  0
   -4.8881   -0.4398   -0.5207 H   0  0  0  0  0  0  0  0  0  0  0  0
   -3.9549   -0.5402   -2.0615 H   0  0  0  0  0  0  0  0  0  0  0  0
   -3.2497   -2.5888   -1.1805 H   0  0  0  0  0  0  0  0  0  0  0  0
   -3.5214   -2.0421    0.5260 H   0  0  0  0  0  0  0  0  0  0  0  0
   -1.2426   -1.7298    0.6105 H   0  0  0  0  0  0  0  0  0  0  0  0
   -1.0777   -1.7120   -1.2047 H   0  0  0  0  0  0  0  0  0  0  0  0
    0.7991   -0.6303    0.5027 H   0  0  0  0  0  0  0  0  0  0  0  0
    1.6950    0.7855   -1.9521 H   0  0  0  0  0  0  0  0  0  0  0  0
    2.2498   -0.6830   -1.3266 H   0  0  0  0  0  0  0  0  0  0  0  0
    2.0859    2.1387    0.0234 H   0  0  0  0  0  0  0  0  0  0  0  0
    1.4194    1.5663    1.5859 H   0  0  0  0  0  0  0  0  0  0  0  0
    4.4502    1.3186   -0.6693 H   0  0  0  0  0  0  0  0  0  0  0  0
    4.7937   -1.5791    2.8656 H   0  0  0  0  0  0  0  0  0  0  0  0
  1  2  3  0
  2  3  1  0
  3  4  1  0
  4  5  1  0
  5  6  1  0
  6  7  1  0
  7  8  1  0
  8  9  2  0
  8 10  1  0
 10 11  1  0
 10 12  1  0
 12 13  1  0
 13 14  2  0
 14 15  1  0
 15 16  1  0
 16 17  2  0
  7  3  1  0
 17 13  1  0
  3 18  1  6
  4 19  1  0
  4 20  1  0
  5 21  1  0
  5 22  1  0
  6 23  1  0
  6 24  1  0
 10 25  1  1
 11 26  1  0
 11 27  1  0
 12 28  1  0
 12 29  1  0
 14 30  1  0
 16 31  1  0
M  END
$$$$
