
     RDKit          3D

 49 52  0  0  0  0  0  0  0  0999 V2000
    2.0777    1.7776   -0.7466 O   0  0  0  0  0  0  0  0  0  0  0  0
    2.0160    0.6311   -0.2230 C   0  0  0  0  0  0  0  0  0  0  0  0
    0.6733    0.0032    0.0395 C   0  0  0  0  0  0  0  0  0  0  0  0
   -0.3937    0.7510   -0.6485 N   0  0  0  0  0  0  0  0  0  0  0  0
   -1.7768    0.4515   -0.1985 C   0  0  0  0  0  0  0  0  0  0  0  0
   -2.0462    1.0668    1.2071 C   0  0  0  0  0  0  0  0  0  0  0  0
   -3.5096    0.8083    1.6319 C   0  0  0  0  0  0  0  0  0  0  0  0
   -3.7728   -0.7136    1.6753 C   0  0  0  0  0  0  0  0  0  0  0  0
   -3.5388   -1.3224    0.2746 C   0  0  0  0  0  0  0  0  0  0  0  0
   -4.4941   -0.6592   -0.7396 C   0  0  0  0  0  0  0  0  0  0  0  0
   -4.2285    0.8603   -0.7803 C   0  0  0  0  0  0  0  0  0  0  0  0
   -4.4669    1.4665    0.6176 C   0  0  0  0  0  0  0  0  0  0  0  0
   -2.7668    1.1123   -1.2044 C   0  0  0  0  0  0  0  0  0  0  0  0
   -2.0744   -1.0788   -0.1547 C   0  0  0  0  0  0  0  0  0  0  0  0
    3.2314   -0.0448    0.1531 N   0  0  0  0  0  0  0  0  0  0  0  0
    3.2627   -1.2916    0.9030 C   0  0  0  0  0  0  0  0  0  0  0  0
    4.7373   -1.6175    1.1041 C   0  0  0  0  0  0  0  0  0  0  0  0
    5.4910   -0.3207    0.8207 C   0  0  0  0  0  0  0  0  0  0  0  0
    4.5587    0.5167   -0.0576 C   0  0  1  0  0  0  0  0  0  0  0  0
    4.9567    0.4236   -1.6094 B   0  0  0  0  0  0  0  0  0  0  0  0
    5.3222    1.6325   -2.3429 O   0  0  0  0  0  0  0  0  0  0  0  0
    4.9486   -0.8675   -2.2937 O   0  0  0  0  0  0  0  0  0  0  0  0
    0.6953   -1.0449   -0.3302 H   0  0  0  0  0  0  0  0  0  0  0  0
    0.5219   -0.0070    1.1357 H   0  0  0  0  0  0  0  0  0  0  0  0
   -0.3117    0.5285   -1.6695 H   0  0  0  0  0  0  0  0  0  0  0  0
   -1.3826    0.6255    1.9783 H   0  0  0  0  0  0  0  0  0  0  0  0
   -1.8465    2.1611    1.1888 H   0  0  0  0  0  0  0  0  0  0  0  0
   -3.6849    1.2429    2.6402 H   0  0  0  0  0  0  0  0  0  0  0  0
   -3.0983   -1.1953    2.4170 H   0  0  0  0  0  0  0  0  0  0  0  0
   -4.8175   -0.9085    2.0035 H   0  0  0  0  0  0  0  0  0  0  0  0
   -3.7375   -2.4157    0.3085 H   0  0  0  0  0  0  0  0  0  0  0  0
   -5.5502   -0.8525   -0.4493 H   0  0  0  0  0  0  0  0  0  0  0  0
   -4.3419   -1.0996   -1.7495 H   0  0  0  0  0  0  0  0  0  0  0  0
   -4.9155    1.3371   -1.5129 H   0  0  0  0  0  0  0  0  0  0  0  0
   -4.2959    2.5652    0.5905 H   0  0  0  0  0  0  0  0  0  0  0  0
   -5.5222    1.3025    0.9284 H   0  0  0  0  0  0  0  0  0  0  0  0
   -2.6090    0.7018   -2.2266 H   0  0  0  0  0  0  0  0  0  0  0  0
   -2.5783    2.2076   -1.2603 H   0  0  0  0  0  0  0  0  0  0  0  0
   -1.4098   -1.5914    0.5737 H   0  0  0  0  0  0  0  0  0  0  0  0
   -1.8925   -1.5333   -1.1535 H   0  0  0  0  0  0  0  0  0  0  0  0
    2.7610   -1.1508    1.8850 H   0  0  0  0  0  0  0  0  0  0  0  0
    2.7619   -2.1026    0.3319 H   0  0  0  0  0  0  0  0  0  0  0  0
    4.9358   -1.9847    2.1344 H   0  0  0  0  0  0  0  0  0  0  0  0
    5.0513   -2.3942    0.3724 H   0  0  0  0  0  0  0  0  0  0  0  0
    6.4830   -0.5202    0.3568 H   0  0  0  0  0  0  0  0  0  0  0  0
    5.6599    0.2133    1.7820 H   0  0  0  0  0  0  0  0  0  0  0  0
    4.5863    1.5785    0.2721 H   0  0  0  0  0  0  0  0  0  0  0  0
    6.3029    1.7085   -2.2268 H   0  0  0  0  0  0  0  0  0  0  0  0
    4.0280   -0.9573   -2.6482 H   0  0  0  0  0  0  0  0  0  0  0  0
  1  2  2  0
  2  3  1  0
  3  4  1  0
  4  5  1  0
  5  6  1  0
  6  7  1  0
  7  8  1  0
  8  9  1  0
  9 10  1  0
 10 11  1  0
 11 12  1  0
 11 13  1  0
  9 14  1  0
  2 15  1  0
 15 16  1  0
 16 17  1  0
 17 18  1  0
 18 19  1  0
 19 20  1  0
 20 21  1  0
 20 22  1  0
 13  5  1  0
 19 15  1  0
 14  5  1  0
 12  7  1  0
  3 23  1  0
  3 24  1  0
  4 25  1  0
  6 26  1  0
  6 27  1  0
  7 28  1  0
  8 29  1  0
  8 30  1  0
  9 31  1  0
 10 32  1  0
 10 33  1  0
 11 34  1  0
 12 35  1  0
 12 36  1  0
 13 37  1  0
 13 38  1  0
 14 39  1  0
 14 40  1  0
 16 41  1  0
 16 42  1  0
 17 43  1  0
 17 44  1  0
 18 45  1  0
 18 46  1  0
 19 47  1  1
 21 48  1  0
 22 49  1  0
M  END
$$$$
