
     RDKit          3D

 50 52  0  0  0  0  0  0  0  0999 V2000
   -3.0985    1.8724    0.1066 N   0  0  0  0  0  0  0  0  0  0  0  0
   -3.0876    1.5875   -1.3317 C   0  0  1  0  0  0  0  0  0  0  0  0
   -1.7055    1.0795   -1.8083 C   0  0  0  0  0  0  0  0  0  0  0  0
   -0.6485    2.1553   -1.7160 C   0  0  0  0  0  0  0  0  0  0  0  0
   -0.7801    3.1700   -2.4543 O   0  0  0  0  0  0  0  0  0  0  0  0
    0.4962    2.0541   -0.8333 N   0  0  0  0  0  0  0  0  0  0  0  0
    1.5434    3.0914   -0.8753 C   0  0  0  0  0  0  0  0  0  0  0  0
    2.9373    2.4657   -0.7208 C   0  0  0  0  0  0  0  0  0  0  0  0
    2.9643    1.4494    0.3388 N   0  0  0  0  0  0  0  0  0  0  0  0
    4.2027    0.7809    0.6367 C   0  0  0  0  0  0  0  0  0  0  0  0
    5.2732    1.4474    0.6547 O   0  0  0  0  0  0  0  0  0  0  0  0
    4.2436   -0.6818    0.8630 C   0  0  0  0  0  0  0  0  0  0  0  0
    3.2173   -1.4538    0.4061 N   0  0  0  0  0  0  0  0  0  0  0  0
    3.1986   -2.8035    0.5648 C   0  0  0  0  0  0  0  0  0  0  0  0
    4.2571   -3.4450    1.2087 C   0  0  0  0  0  0  0  0  0  0  0  0
    4.2460   -4.7910    1.3709 F   0  0  0  0  0  0  0  0  0  0  0  0
    5.3274   -2.6861    1.6833 C   0  0  0  0  0  0  0  0  0  0  0  0
    5.3303   -1.2994    1.5119 C   0  0  0  0  0  0  0  0  0  0  0  0
    6.3725   -0.5738    1.9906 F   0  0  0  0  0  0  0  0  0  0  0  0
    1.7577    1.1981    1.1334 C   0  0  0  0  0  0  0  0  0  0  0  0
    0.5648    1.0000    0.1963 C   0  0  0  0  0  0  0  0  0  0  0  0
   -4.2271    0.6103   -1.6974 C   0  0  0  0  0  0  0  0  0  0  0  0
   -4.1004   -0.7449   -1.0376 C   0  0  0  0  0  0  0  0  0  0  0  0
   -3.3960   -1.7771   -1.6820 C   0  0  0  0  0  0  0  0  0  0  0  0
   -3.2538   -3.0263   -1.0705 C   0  0  0  0  0  0  0  0  0  0  0  0
   -2.5673   -4.0122   -1.6996 F   0  0  0  0  0  0  0  0  0  0  0  0
   -3.8171   -3.2579    0.1875 C   0  0  0  0  0  0  0  0  0  0  0  0
   -3.6795   -4.4689    0.7820 F   0  0  0  0  0  0  0  0  0  0  0  0
   -4.5246   -2.2408    0.8338 C   0  0  0  0  0  0  0  0  0  0  0  0
   -4.6691   -0.9887    0.2275 C   0  0  0  0  0  0  0  0  0  0  0  0
   -5.3618   -0.0171    0.8744 F   0  0  0  0  0  0  0  0  0  0  0  0
   -2.4596    2.6779    0.2978 H   0  0  0  0  0  0  0  0  0  0  0  0
   -2.7263    1.0486    0.6314 H   0  0  0  0  0  0  0  0  0  0  0  0
   -3.3115    2.5356   -1.8712 H   0  0  0  0  0  0  0  0  0  0  0  0
   -1.7798    0.7774   -2.8754 H   0  0  0  0  0  0  0  0  0  0  0  0
   -1.4200    0.1705   -1.2453 H   0  0  0  0  0  0  0  0  0  0  0  0
    1.5238    3.6532   -1.8338 H   0  0  0  0  0  0  0  0  0  0  0  0
    1.3670    3.8173   -0.0523 H   0  0  0  0  0  0  0  0  0  0  0  0
    3.6715    3.2687   -0.4940 H   0  0  0  0  0  0  0  0  0  0  0  0
    3.2244    1.9883   -1.6829 H   0  0  0  0  0  0  0  0  0  0  0  0
    2.3617   -3.3769    0.1889 H   0  0  0  0  0  0  0  0  0  0  0  0
    6.1543   -3.1717    2.1855 H   0  0  0  0  0  0  0  0  0  0  0  0
    1.8719    0.3092    1.7892 H   0  0  0  0  0  0  0  0  0  0  0  0
    1.5700    2.0722    1.7941 H   0  0  0  0  0  0  0  0  0  0  0  0
   -0.3618    1.0037    0.8062 H   0  0  0  0  0  0  0  0  0  0  0  0
    0.6707    0.0109   -0.2992 H   0  0  0  0  0  0  0  0  0  0  0  0
   -4.2583    0.4843   -2.8022 H   0  0  0  0  0  0  0  0  0  0  0  0
   -5.1998    1.0713   -1.4189 H   0  0  0  0  0  0  0  0  0  0  0  0
   -2.9524   -1.6114   -2.6560 H   0  0  0  0  0  0  0  0  0  0  0  0
   -4.9617   -2.4227    1.8073 H   0  0  0  0  0  0  0  0  0  0  0  0
  1  2  1  0
  2  3  1  0
  3  4  1  0
  4  5  2  0
  4  6  1  0
  6  7  1  0
  7  8  1  0
  8  9  1  0
  9 10  1  0
 10 11  2  0
 10 12  1  0
 12 13  2  0
 13 14  1  0
 14 15  2  0
 15 16  1  0
 15 17  1  0
 17 18  2  0
 18 19  1  0
  9 20  1  0
 20 21  1  0
  2 22  1  0
 22 23  1  0
 23 24  2  0
 24 25  1  0
 25 26  1  0
 25 27  2  0
 27 28  1  0
 27 29  1  0
 29 30  2  0
 30 31  1  0
 21  6  1  0
 30 23  1  0
 18 12  1  0
  1 32  1  0
  1 33  1  0
  2 34  1  6
  3 35  1  0
  3 36  1  0
  7 37  1  0
  7 38  1  0
  8 39  1  0
  8 40  1  0
 14 41  1  0
 17 42  1  0
 20 43  1  0
 20 44  1  0
 21 45  1  0
 21 46  1  0
 22 47  1  0
 22 48  1  0
 24 49  1  0
 29 50  1  0
M  END
$$$$
