
     RDKit          3D

 65 70  0  0  0  0  0  0  0  0999 V2000
    0.6498    3.4723    1.5796 C   0  0  0  0  0  0  0  0  0  0  0  0
   -0.2947    2.8120    0.6788 C   0  0  0  0  0  0  0  0  0  0  0  0
   -1.0679    2.2609   -0.0637 C   0  0  0  0  0  0  0  0  0  0  0  0
   -1.9943    1.5727   -0.9691 C   0  0  0  0  0  0  0  0  0  0  0  0
   -1.7490    0.1302   -0.9307 N   0  0  0  0  0  0  0  0  0  0  0  0
   -2.4779   -0.8305   -0.2996 C   0  0  0  0  0  0  0  0  0  0  0  0
   -3.6709   -0.5631    0.4488 N   0  0  0  0  0  0  0  0  0  0  0  0
   -3.5940    0.2100    1.6936 C   0  0  0  0  0  0  0  0  0  0  0  0
   -4.7895    1.1702    1.8244 C   0  0  0  0  0  0  0  0  0  0  0  0
   -6.0934    0.6288    1.1997 C   0  0  0  0  0  0  0  0  0  0  0  0
   -6.0688   -0.8975    1.0242 C   0  0  1  0  0  0  0  0  0  0  0  0
   -7.3473   -1.3651    0.4845 N   0  0  0  0  0  0  0  0  0  0  0  0
   -4.8940   -1.3002    0.1078 C   0  0  0  0  0  0  0  0  0  0  0  0
   -1.9546   -2.0791   -0.4101 N   0  0  0  0  0  0  0  0  0  0  0  0
   -0.8521   -1.8594   -1.1475 C   0  0  0  0  0  0  0  0  0  0  0  0
   -0.7148   -0.5452   -1.4636 C   0  0  0  0  0  0  0  0  0  0  0  0
    0.4953   -0.0457   -2.1495 C   0  0  0  0  0  0  0  0  0  0  0  0
    0.5934    1.1648   -2.4859 O   0  0  0  0  0  0  0  0  0  0  0  0
    1.5758   -0.9795   -2.4095 N   0  0  0  0  0  0  0  0  0  0  0  0
    2.8929   -0.4909   -2.8308 C   0  0  0  0  0  0  0  0  0  0  0  0
    3.6178    0.0712   -1.6493 C   0  0  0  0  0  0  0  0  0  0  0  0
    4.3115   -0.7539   -0.8228 N   0  0  0  0  0  0  0  0  0  0  0  0
    4.9146   -0.2946    0.3064 C   0  0  0  0  0  0  0  0  0  0  0  0
    5.6638   -1.2723    1.1641 C   0  0  0  0  0  0  0  0  0  0  0  0
    4.8035    1.0729    0.6413 C   0  0  0  0  0  0  0  0  0  0  0  0
    5.3831    1.6302    1.7986 C   0  0  0  0  0  0  0  0  0  0  0  0
    5.2256    2.9916    2.0772 C   0  0  0  0  0  0  0  0  0  0  0  0
    4.4952    3.8083    1.2105 C   0  0  0  0  0  0  0  0  0  0  0  0
    3.9180    3.2690    0.0586 C   0  0  0  0  0  0  0  0  0  0  0  0
    4.0671    1.9079   -0.2294 C   0  0  0  0  0  0  0  0  0  0  0  0
    3.4918    1.3878   -1.3427 N   0  0  0  0  0  0  0  0  0  0  0  0
    1.3823   -2.3612   -2.0192 C   0  0  0  0  0  0  0  0  0  0  0  0
    2.3134   -3.2504   -2.0096 N   0  0  0  0  0  0  0  0  0  0  0  0
    1.7822   -4.4900   -1.4384 C   0  0  0  0  0  0  0  0  0  0  0  0
    0.3439   -4.1565   -0.9862 C   0  0  0  0  0  0  0  0  0  0  0  0
    0.1619   -2.8050   -1.4669 N   0  0  0  0  0  0  0  0  0  0  0  0
    1.1080    4.3409    1.0636 H   0  0  0  0  0  0  0  0  0  0  0  0
    1.4442    2.7549    1.8718 H   0  0  0  0  0  0  0  0  0  0  0  0
    0.1145    3.8206    2.4866 H   0  0  0  0  0  0  0  0  0  0  0  0
   -1.8513    1.9525   -2.0020 H   0  0  0  0  0  0  0  0  0  0  0  0
   -3.0384    1.8001   -0.6715 H   0  0  0  0  0  0  0  0  0  0  0  0
   -3.5954   -0.4980    2.5507 H   0  0  0  0  0  0  0  0  0  0  0  0
   -2.6471    0.7875    1.7505 H   0  0  0  0  0  0  0  0  0  0  0  0
   -4.9561    1.3794    2.9036 H   0  0  0  0  0  0  0  0  0  0  0  0
   -4.5355    2.1385    1.3409 H   0  0  0  0  0  0  0  0  0  0  0  0
   -6.2437    1.1054    0.2053 H   0  0  0  0  0  0  0  0  0  0  0  0
   -6.9554    0.9169    1.8402 H   0  0  0  0  0  0  0  0  0  0  0  0
   -5.9223   -1.3633    2.0248 H   0  0  0  0  0  0  0  0  0  0  0  0
   -7.3140   -2.4078    0.4065 H   0  0  0  0  0  0  0  0  0  0  0  0
   -7.4799   -0.9842   -0.4810 H   0  0  0  0  0  0  0  0  0  0  0  0
   -4.7121   -2.3929    0.2002 H   0  0  0  0  0  0  0  0  0  0  0  0
   -5.1541   -1.0788   -0.9506 H   0  0  0  0  0  0  0  0  0  0  0  0
    2.7768    0.2914   -3.6120 H   0  0  0  0  0  0  0  0  0  0  0  0
    3.4901   -1.3102   -3.2860 H   0  0  0  0  0  0  0  0  0  0  0  0
    5.6295   -2.2890    0.7177 H   0  0  0  0  0  0  0  0  0  0  0  0
    5.2046   -1.3188    2.1739 H   0  0  0  0  0  0  0  0  0  0  0  0
    6.7270   -0.9643    1.2492 H   0  0  0  0  0  0  0  0  0  0  0  0
    5.9532    1.0254    2.4912 H   0  0  0  0  0  0  0  0  0  0  0  0
    5.6704    3.4146    2.9687 H   0  0  0  0  0  0  0  0  0  0  0  0
    4.3744    4.8606    1.4329 H   0  0  0  0  0  0  0  0  0  0  0  0
    3.3498    3.9088   -0.6054 H   0  0  0  0  0  0  0  0  0  0  0  0
    1.7741   -5.2846   -2.2150 H   0  0  0  0  0  0  0  0  0  0  0  0
    2.4077   -4.8083   -0.5772 H   0  0  0  0  0  0  0  0  0  0  0  0
    0.2617   -4.1821    0.1220 H   0  0  0  0  0  0  0  0  0  0  0  0
   -0.4002   -4.8361   -1.4541 H   0  0  0  0  0  0  0  0  0  0  0  0
  1  2  1  0
  2  3  3  0
  3  4  1  0
  4  5  1  0
  5  6  1  0
  6  7  1  0
  7  8  1  0
  8  9  1  0
  9 10  1  0
 10 11  1  0
 11 12  1  0
 11 13  1  0
  6 14  2  0
 14 15  1  0
 15 16  2  0
 16 17  1  0
 17 18  2  0
 17 19  1  0
 19 20  1  0
 20 21  1  0
 21 22  2  0
 22 23  1  0
 23 24  1  0
 23 25  2  0
 25 26  1  0
 26 27  2  0
 27 28  1  0
 28 29  2  0
 29 30  1  0
 30 31  2  0
 19 32  1  0
 32 33  2  0
 33 34  1  0
 34 35  1  0
 35 36  1  0
 16  5  1  0
 31 21  1  0
 36 32  1  0
 13  7  1  0
 36 15  1  0
 30 25  1  0
  1 37  1  0
  1 38  1  0
  1 39  1  0
  4 40  1  0
  4 41  1  0
  8 42  1  0
  8 43  1  0
  9 44  1  0
  9 45  1  0
 10 46  1  0
 10 47  1  0
 11 48  1  1
 12 49  1  0
 12 50  1  0
 13 51  1  0
 13 52  1  0
 20 53  1  0
 20 54  1  0
 24 55  1  0
 24 56  1  0
 24 57  1  0
 26 58  1  0
 27 59  1  0
 28 60  1  0
 29 61  1  0
 34 62  1  0
 34 63  1  0
 35 64  1  0
 35 65  1  0
M  END
$$$$
