
     RDKit          3D

 42 45  0  0  0  0  0  0  0  0999 V2000
    6.3915   -0.9154    2.1189 C   0  0  0  0  0  0  0  0  0  0  0  0
    4.9752   -0.7793    2.0633 O   0  0  0  0  0  0  0  0  0  0  0  0
    4.2616   -0.3670    0.9276 C   0  0  0  0  0  0  0  0  0  0  0  0
    4.8978   -0.0437   -0.2823 C   0  0  0  0  0  0  0  0  0  0  0  0
    4.1493    0.3752   -1.3815 C   0  0  0  0  0  0  0  0  0  0  0  0
    2.7531    0.4716   -1.2954 C   0  0  0  0  0  0  0  0  0  0  0  0
    2.0170    0.9169   -2.4004 C   0  0  0  0  0  0  0  0  0  0  0  0
    0.6338    1.0465   -2.3171 C   0  0  0  0  0  0  0  0  0  0  0  0
   -0.0384    0.7169   -1.1405 C   0  0  0  0  0  0  0  0  0  0  0  0
    0.6701    0.2109   -0.0263 C   0  0  0  0  0  0  0  0  0  0  0  0
    2.0887    0.1276   -0.0885 C   0  0  0  0  0  0  0  0  0  0  0  0
    2.8679   -0.2771    1.0177 C   0  0  0  0  0  0  0  0  0  0  0  0
   -0.1042   -0.1846    1.2226 C   0  0  0  0  0  0  0  0  0  0  0  0
   -1.6145   -0.3920    0.9684 C   0  0  0  0  0  0  0  0  0  0  0  0
   -1.8729   -1.6819    0.3167 N   0  0  0  0  0  0  0  0  0  0  0  0
   -2.1632    0.7721    0.1235 C   0  0  0  0  0  0  0  0  0  0  0  0
   -3.6432    0.6142   -0.1557 C   0  0  0  0  0  0  0  0  0  0  0  0
   -4.0895   -0.0821   -1.2956 C   0  0  0  0  0  0  0  0  0  0  0  0
   -5.4570   -0.2546   -1.5300 C   0  0  0  0  0  0  0  0  0  0  0  0
   -5.8762   -0.9216   -2.6334 F   0  0  0  0  0  0  0  0  0  0  0  0
   -6.3918    0.2541   -0.6256 C   0  0  0  0  0  0  0  0  0  0  0  0
   -5.9613    0.9308    0.5178 C   0  0  0  0  0  0  0  0  0  0  0  0
   -4.5948    1.1070    0.7590 C   0  0  0  0  0  0  0  0  0  0  0  0
   -4.2018    1.7527    1.8864 F   0  0  0  0  0  0  0  0  0  0  0  0
   -1.4273    0.8789   -1.0937 O   0  0  0  0  0  0  0  0  0  0  0  0
    6.6835   -1.2547    3.1338 H   0  0  0  0  0  0  0  0  0  0  0  0
    6.7318   -1.6711    1.3797 H   0  0  0  0  0  0  0  0  0  0  0  0
    6.8773    0.0627    1.9176 H   0  0  0  0  0  0  0  0  0  0  0  0
    5.9729   -0.1051   -0.3817 H   0  0  0  0  0  0  0  0  0  0  0  0
    4.6643    0.6300   -2.3005 H   0  0  0  0  0  0  0  0  0  0  0  0
    2.5146    1.1818   -3.3260 H   0  0  0  0  0  0  0  0  0  0  0  0
    0.0785    1.4121   -3.1716 H   0  0  0  0  0  0  0  0  0  0  0  0
    2.4142   -0.5134    1.9698 H   0  0  0  0  0  0  0  0  0  0  0  0
    0.3015   -1.1276    1.6463 H   0  0  0  0  0  0  0  0  0  0  0  0
    0.0279    0.6168    1.9816 H   0  0  0  0  0  0  0  0  0  0  0  0
   -2.1353   -0.3878    1.9526 H   0  0  0  0  0  0  0  0  0  0  0  0
   -1.2733   -1.7785   -0.5346 H   0  0  0  0  0  0  0  0  0  0  0  0
   -1.6049   -2.4494    0.9747 H   0  0  0  0  0  0  0  0  0  0  0  0
   -2.0036    1.7176    0.6889 H   0  0  0  0  0  0  0  0  0  0  0  0
   -3.3801   -0.4960   -2.0012 H   0  0  0  0  0  0  0  0  0  0  0  0
   -7.4504    0.1190   -0.8064 H   0  0  0  0  0  0  0  0  0  0  0  0
   -6.6887    1.3154    1.2210 H   0  0  0  0  0  0  0  0  0  0  0  0
  1  2  1  0
  2  3  1  0
  3  4  2  0
  4  5  1  0
  5  6  2  0
  6  7  1  0
  7  8  2  0
  8  9  1  0
  9 10  2  0
 10 11  1  0
 11 12  2  0
 10 13  1  0
 13 14  1  0
 14 15  1  0
 14 16  1  0
 16 17  1  0
 17 18  2  0
 18 19  1  0
 19 20  1  0
 19 21  2  0
 21 22  1  0
 22 23  2  0
 23 24  1  0
 16 25  1  0
 12  3  1  0
 23 17  1  0
 11  6  1  0
 25  9  1  0
  1 26  1  0
  1 27  1  0
  1 28  1  0
  4 29  1  0
  5 30  1  0
  7 31  1  0
  8 32  1  0
 12 33  1  0
 13 34  1  0
 13 35  1  0
 14 36  1  0
 15 37  1  0
 15 38  1  0
 16 39  1  0
 18 40  1  0
 21 41  1  0
 22 42  1  0
M  END
$$$$
