
     RDKit          3D

 42 44  0  0  0  0  0  0  0  0999 V2000
   -0.3294   -1.3728   -2.1876 N   0  0  0  0  0  0  0  0  0  0  0  0
   -0.9066   -0.1812   -1.5512 C   0  0  2  0  0  0  0  0  0  0  0  0
    0.1512    0.8993   -1.4468 C   0  0  0  0  0  0  0  0  0  0  0  0
   -0.1036    2.0296   -1.9456 O   0  0  0  0  0  0  0  0  0  0  0  0
    1.4002    0.7104   -0.7523 N   0  0  0  0  0  0  0  0  0  0  0  0
    2.2536    1.8366   -0.3630 C   0  0  0  0  0  0  0  0  0  0  0  0
    3.4409    1.1761    0.2277 C   0  0  0  0  0  0  0  0  0  0  0  0
    4.5739    1.7790    0.7766 C   0  0  0  0  0  0  0  0  0  0  0  0
    5.5926    0.9553    1.2827 C   0  0  0  0  0  0  0  0  0  0  0  0
    5.4628   -0.4461    1.2312 C   0  0  0  0  0  0  0  0  0  0  0  0
    4.3139   -1.0300    0.6735 C   0  0  0  0  0  0  0  0  0  0  0  0
    3.3142   -0.1915    0.1771 C   0  0  0  0  0  0  0  0  0  0  0  0
    2.0284   -0.5800   -0.4491 C   0  0  0  0  0  0  0  0  0  0  0  0
   -1.5741   -0.4901   -0.1729 C   0  0  0  0  0  0  0  0  0  0  0  0
   -2.0245    0.8182    0.5395 C   0  0  0  0  0  0  0  0  0  0  0  0
   -3.1433    0.5600    1.5524 C   0  0  0  0  0  0  0  0  0  0  0  0
   -4.4174    0.0358    0.8495 C   0  0  0  0  0  0  0  0  0  0  0  0
   -5.2192   -0.6756    1.7588 O   0  0  0  0  0  0  0  0  0  0  0  0
   -4.1113   -0.8180   -0.4073 C   0  0  0  0  0  0  0  0  0  0  0  0
   -2.7455   -1.5091   -0.3092 C   0  0  0  0  0  0  0  0  0  0  0  0
   -1.0293   -1.7883   -2.8446 H   0  0  0  0  0  0  0  0  0  0  0  0
   -0.1051   -2.1043   -1.4749 H   0  0  0  0  0  0  0  0  0  0  0  0
   -1.7084    0.2114   -2.2202 H   0  0  0  0  0  0  0  0  0  0  0  0
    2.5455    2.4319   -1.2545 H   0  0  0  0  0  0  0  0  0  0  0  0
    1.7396    2.4676    0.3931 H   0  0  0  0  0  0  0  0  0  0  0  0
    4.6663    2.8567    0.8117 H   0  0  0  0  0  0  0  0  0  0  0  0
    6.4806    1.3993    1.7134 H   0  0  0  0  0  0  0  0  0  0  0  0
    6.2514   -1.0755    1.6227 H   0  0  0  0  0  0  0  0  0  0  0  0
    4.2066   -2.1061    0.6301 H   0  0  0  0  0  0  0  0  0  0  0  0
    2.2203   -1.1500   -1.3824 H   0  0  0  0  0  0  0  0  0  0  0  0
    1.4216   -1.1623    0.2718 H   0  0  0  0  0  0  0  0  0  0  0  0
   -0.8161   -0.9669    0.4832 H   0  0  0  0  0  0  0  0  0  0  0  0
   -2.3920    1.5601   -0.2041 H   0  0  0  0  0  0  0  0  0  0  0  0
   -1.1563    1.2729    1.0651 H   0  0  0  0  0  0  0  0  0  0  0  0
   -3.3799    1.5018    2.0936 H   0  0  0  0  0  0  0  0  0  0  0  0
   -2.7806   -0.1757    2.3040 H   0  0  0  0  0  0  0  0  0  0  0  0
   -5.0055    0.9174    0.5121 H   0  0  0  0  0  0  0  0  0  0  0  0
   -4.7265   -1.5000    2.0111 H   0  0  0  0  0  0  0  0  0  0  0  0
   -4.9061   -1.5814   -0.5545 H   0  0  0  0  0  0  0  0  0  0  0  0
   -4.1144   -0.1657   -1.3083 H   0  0  0  0  0  0  0  0  0  0  0  0
   -2.7530   -2.1743    0.5823 H   0  0  0  0  0  0  0  0  0  0  0  0
   -2.6154   -2.1743   -1.1869 H   0  0  0  0  0  0  0  0  0  0  0  0
  1  2  1  0
  2  3  1  0
  3  4  2  0
  3  5  1  0
  5  6  1  0
  6  7  1  0
  7  8  2  0
  8  9  1  0
  9 10  2  0
 10 11  1  0
 11 12  2  0
 12 13  1  0
  2 14  1  0
 14 15  1  0
 15 16  1  0
 16 17  1  0
 17 18  1  0
 17 19  1  0
 19 20  1  0
 13  5  1  0
 20 14  1  0
 12  7  1  0
  1 21  1  0
  1 22  1  0
  2 23  1  6
  6 24  1  0
  6 25  1  0
  8 26  1  0
  9 27  1  0
 10 28  1  0
 11 29  1  0
 13 30  1  0
 13 31  1  0
 14 32  1  0
 15 33  1  0
 15 34  1  0
 16 35  1  0
 16 36  1  0
 17 37  1  0
 18 38  1  0
 19 39  1  0
 19 40  1  0
 20 41  1  0
 20 42  1  0
M  END
$$$$
