
     RDKit          3D

 68 73  0  0  0  0  0  0  0  0999 V2000
   -3.0317    5.2106    1.2164 C   0  0  0  0  0  0  0  0  0  0  0  0
   -2.4842    3.9132    1.6110 C   0  0  0  0  0  0  0  0  0  0  0  0
   -2.0349    2.8426    1.9338 C   0  0  0  0  0  0  0  0  0  0  0  0
   -1.4930    1.5369    2.3197 C   0  0  0  0  0  0  0  0  0  0  0  0
   -1.4134    0.6618    1.1485 N   0  0  0  0  0  0  0  0  0  0  0  0
   -2.3011   -0.2919    0.7501 C   0  0  0  0  0  0  0  0  0  0  0  0
   -3.5647   -0.5417    1.3891 N   0  0  0  0  0  0  0  0  0  0  0  0
   -4.5304    0.5569    1.5573 C   0  0  0  0  0  0  0  0  0  0  0  0
   -5.9779    0.0437    1.5297 C   0  0  0  0  0  0  0  0  0  0  0  0
   -6.1371   -1.0274    0.4463 C   0  0  0  0  0  0  0  0  0  0  0  0
   -5.2277   -2.2590    0.7092 C   0  0  1  0  0  0  0  0  0  0  0  0
   -4.7886   -2.8651   -0.5501 N   0  0  0  0  0  0  0  0  0  0  0  0
   -4.0050   -1.9267    1.5950 C   0  0  0  0  0  0  0  0  0  0  0  0
   -1.8991   -0.9841   -0.3463 N   0  0  0  0  0  0  0  0  0  0  0  0
   -0.7156   -0.4146   -0.6396 C   0  0  0  0  0  0  0  0  0  0  0  0
   -0.4241    0.5749    0.2362 C   0  0  0  0  0  0  0  0  0  0  0  0
    0.7388    1.3229    0.0830 C   0  0  0  0  0  0  0  0  0  0  0  0
    1.0114    2.2551    0.8877 O   0  0  0  0  0  0  0  0  0  0  0  0
    1.5717    1.0316   -0.9762 N   0  0  0  0  0  0  0  0  0  0  0  0
    2.8349    1.7811   -1.1413 C   0  0  0  0  0  0  0  0  0  0  0  0
    3.9262    1.1560   -0.3012 C   0  0  0  0  0  0  0  0  0  0  0  0
    3.8753    1.3983    1.0376 N   0  0  0  0  0  0  0  0  0  0  0  0
    4.7549    0.8670    1.9238 C   0  0  0  0  0  0  0  0  0  0  0  0
    4.6162    1.1723    3.3812 C   0  0  0  0  0  0  0  0  0  0  0  0
    5.7589    0.0107    1.4739 C   0  0  0  0  0  0  0  0  0  0  0  0
    5.8601   -0.2774    0.1087 C   0  0  0  0  0  0  0  0  0  0  0  0
    6.8715   -1.1372   -0.3482 C   0  0  0  0  0  0  0  0  0  0  0  0
    6.9866   -1.4284   -1.7065 C   0  0  0  0  0  0  0  0  0  0  0  0
    6.0995   -0.8619   -2.6197 C   0  0  0  0  0  0  0  0  0  0  0  0
    5.0871   -0.0037   -2.1829 C   0  0  0  0  0  0  0  0  0  0  0  0
    4.9414    0.2986   -0.8104 C   0  0  0  0  0  0  0  0  0  0  0  0
    1.2437    0.0134   -1.8574 C   0  0  0  0  0  0  0  0  0  0  0  0
    1.9845   -0.2196   -2.8526 O   0  0  0  0  0  0  0  0  0  0  0  0
    0.1076   -0.7436   -1.6706 N   0  0  0  0  0  0  0  0  0  0  0  0
   -0.2750   -1.7982   -2.6237 C   0  0  0  0  0  0  0  0  0  0  0  0
   -0.5246   -3.1639   -1.9920 C   0  0  0  0  0  0  0  0  0  0  0  0
    0.7516   -2.9158   -2.7725 C   0  0  0  0  0  0  0  0  0  0  0  0
   -4.0779    5.0803    0.8708 H   0  0  0  0  0  0  0  0  0  0  0  0
   -2.4206    5.6349    0.3933 H   0  0  0  0  0  0  0  0  0  0  0  0
   -3.0122    5.9002    2.0852 H   0  0  0  0  0  0  0  0  0  0  0  0
   -2.1331    1.0810    3.1017 H   0  0  0  0  0  0  0  0  0  0  0  0
   -0.4899    1.6694    2.7735 H   0  0  0  0  0  0  0  0  0  0  0  0
   -4.3525    1.0792    2.5191 H   0  0  0  0  0  0  0  0  0  0  0  0
   -4.4052    1.2906    0.7301 H   0  0  0  0  0  0  0  0  0  0  0  0
   -6.6690    0.8900    1.3261 H   0  0  0  0  0  0  0  0  0  0  0  0
   -6.2459   -0.3863    2.5198 H   0  0  0  0  0  0  0  0  0  0  0  0
   -7.1989   -1.3538    0.4053 H   0  0  0  0  0  0  0  0  0  0  0  0
   -5.8969   -0.5655   -0.5371 H   0  0  0  0  0  0  0  0  0  0  0  0
   -5.8286   -3.0183    1.2586 H   0  0  0  0  0  0  0  0  0  0  0  0
   -4.2701   -2.1546   -1.1160 H   0  0  0  0  0  0  0  0  0  0  0  0
   -5.6343   -3.1448   -1.0989 H   0  0  0  0  0  0  0  0  0  0  0  0
   -3.1760   -2.6460    1.4102 H   0  0  0  0  0  0  0  0  0  0  0  0
   -4.2901   -2.0449    2.6633 H   0  0  0  0  0  0  0  0  0  0  0  0
    2.6997    2.8345   -0.8113 H   0  0  0  0  0  0  0  0  0  0  0  0
    3.1043    1.8891   -2.2085 H   0  0  0  0  0  0  0  0  0  0  0  0
    3.8521    1.9622    3.5428 H   0  0  0  0  0  0  0  0  0  0  0  0
    4.3052    0.2562    3.9258 H   0  0  0  0  0  0  0  0  0  0  0  0
    5.5862    1.5290    3.7875 H   0  0  0  0  0  0  0  0  0  0  0  0
    6.4536   -0.4253    2.1834 H   0  0  0  0  0  0  0  0  0  0  0  0
    7.5739   -1.5834    0.3461 H   0  0  0  0  0  0  0  0  0  0  0  0
    7.7686   -2.0916   -2.0531 H   0  0  0  0  0  0  0  0  0  0  0  0
    6.1984   -1.0861   -3.6742 H   0  0  0  0  0  0  0  0  0  0  0  0
    4.4443    0.4132   -2.9391 H   0  0  0  0  0  0  0  0  0  0  0  0
   -0.8746   -1.5248   -3.5176 H   0  0  0  0  0  0  0  0  0  0  0  0
   -0.3607   -3.2402   -0.8957 H   0  0  0  0  0  0  0  0  0  0  0  0
   -1.2658   -3.7915   -2.5301 H   0  0  0  0  0  0  0  0  0  0  0  0
    0.7671   -3.3967   -3.7731 H   0  0  0  0  0  0  0  0  0  0  0  0
    1.6548   -2.8434   -2.1293 H   0  0  0  0  0  0  0  0  0  0  0  0
  1  2  1  0
  2  3  3  0
  3  4  1  0
  4  5  1  0
  5  6  1  0
  6  7  1  0
  7  8  1  0
  8  9  1  0
  9 10  1  0
 10 11  1  0
 11 12  1  0
 11 13  1  0
  6 14  2  0
 14 15  1  0
 15 16  2  0
 16 17  1  0
 17 18  2  0
 17 19  1  0
 19 20  1  0
 20 21  1  0
 21 22  2  0
 22 23  1  0
 23 24  1  0
 23 25  2  0
 25 26  1  0
 26 27  2  0
 27 28  1  0
 28 29  2  0
 29 30  1  0
 30 31  2  0
 19 32  1  0
 32 33  2  0
 32 34  1  0
 34 35  1  0
 35 36  1  0
 36 37  1  0
 16  5  1  0
 31 21  1  0
 37 35  1  0
 13  7  1  0
 34 15  1  0
 31 26  1  0
  1 38  1  0
  1 39  1  0
  1 40  1  0
  4 41  1  0
  4 42  1  0
  8 43  1  0
  8 44  1  0
  9 45  1  0
  9 46  1  0
 10 47  1  0
 10 48  1  0
 11 49  1  1
 12 50  1  0
 12 51  1  0
 13 52  1  0
 13 53  1  0
 20 54  1  0
 20 55  1  0
 24 56  1  0
 24 57  1  0
 24 58  1  0
 25 59  1  0
 27 60  1  0
 28 61  1  0
 29 62  1  0
 30 63  1  0
 35 64  1  0
 36 65  1  0
 36 66  1  0
 37 67  1  0
 37 68  1  0
M  END
$$$$
