
     RDKit          3D

 49 50  0  0  0  0  0  0  0  0999 V2000
   -5.9788    0.0726   -2.0278 C   0  0  0  0  0  0  0  0  0  0  0  0
   -4.6020    0.3137   -1.4154 C   0  0  0  0  0  0  0  0  0  0  0  0
   -4.5365   -0.2174    0.0241 C   0  0  0  0  0  0  0  0  0  0  0  0
   -3.2310    0.1668    0.7458 C   0  0  0  0  0  0  0  0  0  0  0  0
   -1.9489   -0.4567    0.1366 C   0  0  1  0  0  0  0  0  0  0  0  0
   -0.6980    0.0495    0.8808 C   0  0  0  0  0  0  0  0  0  0  0  0
    0.5351   -0.4663    0.2620 N   0  0  0  0  0  0  0  0  0  0  0  0
    1.7880    0.2172    0.4855 C   0  0  0  0  0  0  0  0  0  0  0  0
    2.0967    0.7407    1.7507 C   0  0  0  0  0  0  0  0  0  0  0  0
    3.3047    1.4043    1.9693 C   0  0  0  0  0  0  0  0  0  0  0  0
    4.2315    1.5617    0.9227 C   0  0  0  0  0  0  0  0  0  0  0  0
    5.4568    2.2224    1.1054 O   0  0  0  0  0  0  0  0  0  0  0  0
    5.8901    2.7926    2.3362 C   0  0  0  0  0  0  0  0  0  0  0  0
    3.9339    1.0478   -0.3482 C   0  0  0  0  0  0  0  0  0  0  0  0
    4.8762    1.2233   -1.3743 O   0  0  0  0  0  0  0  0  0  0  0  0
    4.7136    0.7551   -2.7093 C   0  0  0  0  0  0  0  0  0  0  0  0
    2.7125    0.3788   -0.5612 C   0  0  0  0  0  0  0  0  0  0  0  0
    0.4670   -1.6116   -0.6586 C   0  0  0  0  0  0  0  0  0  0  0  0
   -0.5568   -2.6316   -0.1547 C   0  0  0  0  0  0  0  0  0  0  0  0
   -1.9659   -2.0148    0.0726 C   0  0  0  0  0  0  0  0  0  0  0  0
   -2.5886   -2.5903    1.2701 N   0  0  0  0  0  0  0  0  0  0  0  0
   -6.7599    0.6062   -1.4454 H   0  0  0  0  0  0  0  0  0  0  0  0
   -6.2094   -1.0141   -2.0420 H   0  0  0  0  0  0  0  0  0  0  0  0
   -5.9935    0.4526   -3.0711 H   0  0  0  0  0  0  0  0  0  0  0  0
   -3.8470   -0.2014   -2.0459 H   0  0  0  0  0  0  0  0  0  0  0  0
   -4.3904    1.4050   -1.4262 H   0  0  0  0  0  0  0  0  0  0  0  0
   -4.6720   -1.3196    0.0262 H   0  0  0  0  0  0  0  0  0  0  0  0
   -5.3806    0.2161    0.6042 H   0  0  0  0  0  0  0  0  0  0  0  0
   -3.1383    1.2753    0.7341 H   0  0  0  0  0  0  0  0  0  0  0  0
   -3.3175   -0.1307    1.8134 H   0  0  0  0  0  0  0  0  0  0  0  0
   -1.8589   -0.0760   -0.9045 H   0  0  0  0  0  0  0  0  0  0  0  0
   -0.6869    1.1617    0.8447 H   0  0  0  0  0  0  0  0  0  0  0  0
   -0.7357   -0.2651    1.9458 H   0  0  0  0  0  0  0  0  0  0  0  0
    1.4085    0.6246    2.5775 H   0  0  0  0  0  0  0  0  0  0  0  0
    3.5096    1.7898    2.9586 H   0  0  0  0  0  0  0  0  0  0  0  0
    5.9666    2.0054    3.1157 H   0  0  0  0  0  0  0  0  0  0  0  0
    5.1826    3.5849    2.6600 H   0  0  0  0  0  0  0  0  0  0  0  0
    6.8912    3.2479    2.1920 H   0  0  0  0  0  0  0  0  0  0  0  0
    5.6113    1.0282   -3.3008 H   0  0  0  0  0  0  0  0  0  0  0  0
    4.6063   -0.3502   -2.7161 H   0  0  0  0  0  0  0  0  0  0  0  0
    3.8239    1.2295   -3.1747 H   0  0  0  0  0  0  0  0  0  0  0  0
    2.4687   -0.0026   -1.5426 H   0  0  0  0  0  0  0  0  0  0  0  0
    0.1864   -1.2587   -1.6745 H   0  0  0  0  0  0  0  0  0  0  0  0
    1.4562   -2.1159   -0.7239 H   0  0  0  0  0  0  0  0  0  0  0  0
   -0.6290   -3.4680   -0.8835 H   0  0  0  0  0  0  0  0  0  0  0  0
   -0.1630   -3.0605    0.7932 H   0  0  0  0  0  0  0  0  0  0  0  0
   -2.5945   -2.2932   -0.8030 H   0  0  0  0  0  0  0  0  0  0  0  0
   -2.6486   -3.6280    1.1525 H   0  0  0  0  0  0  0  0  0  0  0  0
   -1.9856   -2.4009    2.1036 H   0  0  0  0  0  0  0  0  0  0  0  0
  1  2  1  0
  2  3  1  0
  3  4  1  0
  4  5  1  0
  5  6  1  0
  6  7  1  0
  7  8  1  0
  8  9  2  0
  9 10  1  0
 10 11  2  0
 11 12  1  0
 12 13  1  0
 11 14  1  0
 14 15  1  0
 15 16  1  0
 14 17  2  0
  7 18  1  0
 18 19  1  0
 19 20  1  0
 20 21  1  0
 20  5  1  0
 17  8  1  0
  1 22  1  0
  1 23  1  0
  1 24  1  0
  2 25  1  0
  2 26  1  0
  3 27  1  0
  3 28  1  0
  4 29  1  0
  4 30  1  0
  5 31  1  6
  6 32  1  0
  6 33  1  0
  9 34  1  0
 10 35  1  0
 13 36  1  0
 13 37  1  0
 13 38  1  0
 16 39  1  0
 16 40  1  0
 16 41  1  0
 17 42  1  0
 18 43  1  0
 18 44  1  0
 19 45  1  0
 19 46  1  0
 20 47  1  0
 21 48  1  0
 21 49  1  0
M  END
$$$$
