
     RDKit          3D

 64 66  0  0  0  0  0  0  0  0999 V2000
   -0.5545   -3.2222    1.1709 C   0  0  0  0  0  0  0  0  0  0  0  0
    0.8300   -3.4766    0.7662 N   0  0  0  0  0  0  0  0  0  0  0  0
    1.5908   -4.5067    1.4741 C   0  0  0  0  0  0  0  0  0  0  0  0
    1.3245   -2.9955   -0.4989 C   0  0  0  0  0  0  0  0  0  0  0  0
    1.8390   -3.8180   -1.3054 O   0  0  0  0  0  0  0  0  0  0  0  0
    1.3475   -1.5195   -0.8585 C   0  0  1  0  0  0  0  0  0  0  0  0
   -0.0553   -0.9067   -0.8567 C   0  0  0  0  0  0  0  0  0  0  0  0
   -0.4352    0.1900   -0.0538 C   0  0  0  0  0  0  0  0  0  0  0  0
   -1.7371    0.6951   -0.1042 C   0  0  0  0  0  0  0  0  0  0  0  0
   -2.6931    0.1292   -0.9629 C   0  0  0  0  0  0  0  0  0  0  0  0
   -4.0774    0.6642   -1.0112 C   0  0  0  0  0  0  0  0  0  0  0  0
   -5.1844   -0.2174   -1.1144 C   0  0  0  0  0  0  0  0  0  0  0  0
   -6.4880    0.2991   -1.1591 C   0  0  0  0  0  0  0  0  0  0  0  0
   -6.6431    1.6434   -1.1014 N   0  0  0  0  0  0  0  0  0  0  0  0
   -7.7727    2.3205   -1.1313 N   0  0  0  0  0  0  0  0  0  0  0  0
   -7.3949    3.6188   -1.0489 C   0  0  0  0  0  0  0  0  0  0  0  0
   -6.0476    3.7788   -0.9675 N   0  0  0  0  0  0  0  0  0  0  0  0
   -5.6261    2.5024   -1.0042 C   0  0  0  0  0  0  0  0  0  0  0  0
   -4.3078    2.0584   -0.9545 C   0  0  0  0  0  0  0  0  0  0  0  0
   -2.3147   -0.9472   -1.7803 C   0  0  0  0  0  0  0  0  0  0  0  0
   -1.0132   -1.4510   -1.7328 C   0  0  0  0  0  0  0  0  0  0  0  0
    2.4908   -0.7846   -0.0802 C   0  0  2  0  0  0  0  0  0  0  0  0
    2.3388   -0.8550    1.3803 N   0  0  0  0  0  0  0  0  0  0  0  0
    2.7223    0.6494   -0.5213 C   0  0  0  0  0  0  0  0  0  0  0  0
    2.0436    1.1324   -1.4692 O   0  0  0  0  0  0  0  0  0  0  0  0
    3.7520    1.4586    0.0791 N   0  0  0  0  0  0  0  0  0  0  0  0
    4.7736    0.9619    0.9884 C   0  0  0  0  0  0  0  0  0  0  0  0
    5.7936    2.0863    1.1109 C   0  0  0  0  0  0  0  0  0  0  0  0
    5.0720    3.3472    0.6395 C   0  0  0  0  0  0  0  0  0  0  0  0
    4.5498    4.0240    1.7299 F   0  0  0  0  0  0  0  0  0  0  0  0
    5.9327    4.1827   -0.0524 F   0  0  0  0  0  0  0  0  0  0  0  0
    3.9414    2.8592   -0.2594 C   0  0  0  0  0  0  0  0  0  0  0  0
    0.8181    0.8788   -1.2316 O   0  0  0  0  0  0  0  0  0  0  0  0
    0.4750    0.1151   -0.2897 C   0  0  0  0  0  0  0  0  0  0  0  0
    1.4340   -0.6515    0.3656 O   0  0  0  0  0  0  0  0  0  0  0  0
   -0.9490    0.0775    0.1616 C   0  0  0  0  0  0  0  0  0  0  0  0
   -1.2083   -1.1163    0.8097 F   0  0  0  0  0  0  0  0  0  0  0  0
   -1.7934    0.1906   -0.9281 F   0  0  0  0  0  0  0  0  0  0  0  0
   -1.1825    1.1266    1.0303 F   0  0  0  0  0  0  0  0  0  0  0  0
   -0.8523   -3.8837    2.0125 H   0  0  0  0  0  0  0  0  0  0  0  0
   -0.6702   -2.1741    1.5092 H   0  0  0  0  0  0  0  0  0  0  0  0
   -1.2420   -3.4222    0.3225 H   0  0  0  0  0  0  0  0  0  0  0  0
    2.6755   -4.4149    1.2500 H   0  0  0  0  0  0  0  0  0  0  0  0
    1.2375   -5.5126    1.1641 H   0  0  0  0  0  0  0  0  0  0  0  0
    1.4598   -4.3919    2.5711 H   0  0  0  0  0  0  0  0  0  0  0  0
    1.6659   -1.4720   -1.9259 H   0  0  0  0  0  0  0  0  0  0  0  0
    0.2600    0.6792    0.6098 H   0  0  0  0  0  0  0  0  0  0  0  0
   -1.9996    1.5234    0.5419 H   0  0  0  0  0  0  0  0  0  0  0  0
   -5.0411   -1.2901   -1.1423 H   0  0  0  0  0  0  0  0  0  0  0  0
   -7.3456   -0.3574   -1.2341 H   0  0  0  0  0  0  0  0  0  0  0  0
   -8.0942    4.4439   -1.0484 H   0  0  0  0  0  0  0  0  0  0  0  0
   -3.4938    2.7698   -0.8922 H   0  0  0  0  0  0  0  0  0  0  0  0
   -3.0206   -1.3897   -2.4719 H   0  0  0  0  0  0  0  0  0  0  0  0
   -0.7510   -2.2790   -2.3800 H   0  0  0  0  0  0  0  0  0  0  0  0
    3.4324   -1.3168   -0.3492 H   0  0  0  0  0  0  0  0  0  0  0  0
    2.8135   -1.7194    1.7288 H   0  0  0  0  0  0  0  0  0  0  0  0
    1.3392   -0.9320    1.6624 H   0  0  0  0  0  0  0  0  0  0  0  0
    4.3230    0.7494    1.9810 H   0  0  0  0  0  0  0  0  0  0  0  0
    5.2540    0.0468    0.5798 H   0  0  0  0  0  0  0  0  0  0  0  0
    6.6563    1.8754    0.4408 H   0  0  0  0  0  0  0  0  0  0  0  0
    6.1628    2.1889    2.1546 H   0  0  0  0  0  0  0  0  0  0  0  0
    3.0075    3.4327   -0.0725 H   0  0  0  0  0  0  0  0  0  0  0  0
    4.2255    2.9454   -1.3309 H   0  0  0  0  0  0  0  0  0  0  0  0
    2.4061   -0.6209    0.0823 H   0  0  0  0  0  0  0  0  0  0  0  0
  1  2  1  0
  2  3  1  0
  2  4  1  0
  4  5  2  0
  4  6  1  0
  6  7  1  0
  7  8  2  0
  8  9  1  0
  9 10  2  0
 10 11  1  0
 11 12  1  0
 12 13  2  0
 13 14  1  0
 14 15  1  0
 15 16  2  0
 16 17  1  0
 17 18  2  0
 18 19  1  0
 10 20  1  0
 20 21  2  0
  6 22  1  0
 22 23  1  0
 22 24  1  0
 24 25  2  0
 24 26  1  0
 26 27  1  0
 27 28  1  0
 28 29  1  0
 29 30  1  0
 29 31  1  0
 29 32  1  0
 33 34  2  0
 34 35  1  0
 34 36  1  0
 36 37  1  0
 36 38  1  0
 36 39  1  0
 21  7  1  0
 32 26  1  0
 19 11  2  0
 18 14  1  0
  1 40  1  0
  1 41  1  0
  1 42  1  0
  3 43  1  0
  3 44  1  0
  3 45  1  0
  6 46  1  6
  8 47  1  0
  9 48  1  0
 12 49  1  0
 13 50  1  0
 16 51  1  0
 19 52  1  0
 20 53  1  0
 21 54  1  0
 22 55  1  1
 23 56  1  0
 23 57  1  0
 27 58  1  0
 27 59  1  0
 28 60  1  0
 28 61  1  0
 32 62  1  0
 32 63  1  0
 35 64  1  0
M  END
$$$$
