
     RDKit          3D

 63 67  0  0  0  0  0  0  0  0999 V2000
   -5.4888    3.0726    0.1607 C   0  0  0  0  0  0  0  0  0  0  0  0
   -4.4146    2.3421    0.8322 C   0  0  0  0  0  0  0  0  0  0  0  0
   -3.5313    1.7327    1.3803 C   0  0  0  0  0  0  0  0  0  0  0  0
   -2.4568    0.9818    2.0367 C   0  0  0  0  0  0  0  0  0  0  0  0
   -1.5999    0.3449    1.0294 N   0  0  0  0  0  0  0  0  0  0  0  0
   -1.9416   -0.6484    0.1551 C   0  0  0  0  0  0  0  0  0  0  0  0
   -3.2263   -1.2983    0.1201 N   0  0  0  0  0  0  0  0  0  0  0  0
   -3.7767   -1.9124    1.3378 C   0  0  0  0  0  0  0  0  0  0  0  0
   -4.5703   -3.1770    1.0018 C   0  0  0  0  0  0  0  0  0  0  0  0
   -5.7028   -2.8845    0.0041 C   0  0  0  0  0  0  0  0  0  0  0  0
   -5.3202   -1.8647   -1.1008 C   0  0  1  0  0  0  0  0  0  0  0  0
   -6.0305   -0.5991   -0.8893 N   0  0  0  0  0  0  0  0  0  0  0  0
   -3.7960   -1.6358   -1.1925 C   0  0  0  0  0  0  0  0  0  0  0  0
   -0.9786   -0.9231   -0.7620 N   0  0  0  0  0  0  0  0  0  0  0  0
    0.0031   -0.0655   -0.4342 C   0  0  0  0  0  0  0  0  0  0  0  0
   -0.3602    0.7041    0.6266 C   0  0  0  0  0  0  0  0  0  0  0  0
    0.5130    1.6897    1.0883 C   0  0  0  0  0  0  0  0  0  0  0  0
    0.2263    2.4468    2.0504 O   0  0  0  0  0  0  0  0  0  0  0  0
    1.7154    1.8174    0.4633 N   0  0  0  0  0  0  0  0  0  0  0  0
    2.0795    1.0231   -0.5941 C   0  0  0  0  0  0  0  0  0  0  0  0
    1.1969    0.0794   -1.0770 N   0  0  0  0  0  0  0  0  0  0  0  0
    1.5428   -0.8005   -2.2046 C   0  0  0  0  0  0  0  0  0  0  0  0
    2.5931   -0.1605   -3.1111 C   0  0  0  0  0  0  0  0  0  0  0  0
    3.7923    0.2711   -2.2763 C   0  0  0  0  0  0  0  0  0  0  0  0
    3.3739    1.1980   -1.2166 N   0  0  0  0  0  0  0  0  0  0  0  0
    4.2344    2.3480   -0.8902 C   0  0  0  0  0  0  0  0  0  0  0  0
    5.6464    1.9051   -0.6006 C   0  0  0  0  0  0  0  0  0  0  0  0
    6.5635    2.3024   -1.3702 O   0  0  0  0  0  0  0  0  0  0  0  0
    5.9843    1.0027    0.5334 C   0  0  0  0  0  0  0  0  0  0  0  0
    7.2539    0.3946    0.5914 C   0  0  0  0  0  0  0  0  0  0  0  0
    7.5845   -0.4639    1.6443 C   0  0  0  0  0  0  0  0  0  0  0  0
    6.6562   -0.7248    2.6534 C   0  0  0  0  0  0  0  0  0  0  0  0
    5.3964   -0.1253    2.6132 C   0  0  0  0  0  0  0  0  0  0  0  0
    5.0604    0.7344    1.5630 C   0  0  0  0  0  0  0  0  0  0  0  0
   -6.4681    2.7437    0.5652 H   0  0  0  0  0  0  0  0  0  0  0  0
   -5.4514    2.8646   -0.9285 H   0  0  0  0  0  0  0  0  0  0  0  0
   -5.3621    4.1609    0.3349 H   0  0  0  0  0  0  0  0  0  0  0  0
   -1.8896    1.6697    2.6871 H   0  0  0  0  0  0  0  0  0  0  0  0
   -2.8876    0.2197    2.7124 H   0  0  0  0  0  0  0  0  0  0  0  0
   -4.4486   -1.1914    1.8488 H   0  0  0  0  0  0  0  0  0  0  0  0
   -2.9535   -2.1910    2.0318 H   0  0  0  0  0  0  0  0  0  0  0  0
   -4.9962   -3.6096    1.9328 H   0  0  0  0  0  0  0  0  0  0  0  0
   -3.8789   -3.9308    0.5646 H   0  0  0  0  0  0  0  0  0  0  0  0
   -6.5916   -2.5220    0.5668 H   0  0  0  0  0  0  0  0  0  0  0  0
   -6.0020   -3.8450   -0.4699 H   0  0  0  0  0  0  0  0  0  0  0  0
   -5.6563   -2.2780   -2.0781 H   0  0  0  0  0  0  0  0  0  0  0  0
   -5.8276    0.0431   -1.6898 H   0  0  0  0  0  0  0  0  0  0  0  0
   -5.6765   -0.1386   -0.0206 H   0  0  0  0  0  0  0  0  0  0  0  0
   -3.5885   -0.8199   -1.9197 H   0  0  0  0  0  0  0  0  0  0  0  0
   -3.3073   -2.5588   -1.5741 H   0  0  0  0  0  0  0  0  0  0  0  0
    1.9286   -1.7652   -1.8086 H   0  0  0  0  0  0  0  0  0  0  0  0
    0.6417   -1.0147   -2.8205 H   0  0  0  0  0  0  0  0  0  0  0  0
    2.1569    0.7251   -3.6232 H   0  0  0  0  0  0  0  0  0  0  0  0
    2.9167   -0.8914   -3.8832 H   0  0  0  0  0  0  0  0  0  0  0  0
    4.2643   -0.6222   -1.8122 H   0  0  0  0  0  0  0  0  0  0  0  0
    4.5415    0.7497   -2.9444 H   0  0  0  0  0  0  0  0  0  0  0  0
    3.8569    2.9204   -0.0185 H   0  0  0  0  0  0  0  0  0  0  0  0
    4.2299    3.0498   -1.7525 H   0  0  0  0  0  0  0  0  0  0  0  0
    7.9903    0.5748   -0.1818 H   0  0  0  0  0  0  0  0  0  0  0  0
    8.5616   -0.9284    1.6765 H   0  0  0  0  0  0  0  0  0  0  0  0
    6.9138   -1.3897    3.4677 H   0  0  0  0  0  0  0  0  0  0  0  0
    4.6789   -0.3241    3.3989 H   0  0  0  0  0  0  0  0  0  0  0  0
    4.0832    1.1922    1.5721 H   0  0  0  0  0  0  0  0  0  0  0  0
  1  2  1  0
  2  3  3  0
  3  4  1  0
  4  5  1  0
  5  6  1  0
  6  7  1  0
  7  8  1  0
  8  9  1  0
  9 10  1  0
 10 11  1  0
 11 12  1  0
 11 13  1  0
  6 14  2  0
 14 15  1  0
 15 16  2  0
 16 17  1  0
 17 18  2  0
 17 19  1  0
 19 20  2  0
 20 21  1  0
 21 22  1  0
 22 23  1  0
 23 24  1  0
 24 25  1  0
 25 26  1  0
 26 27  1  0
 27 28  2  0
 27 29  1  0
 29 30  2  0
 30 31  1  0
 31 32  2  0
 32 33  1  0
 33 34  2  0
 16  5  1  0
 25 20  1  0
 34 29  1  0
 13  7  1  0
 21 15  1  0
  1 35  1  0
  1 36  1  0
  1 37  1  0
  4 38  1  0
  4 39  1  0
  8 40  1  0
  8 41  1  0
  9 42  1  0
  9 43  1  0
 10 44  1  0
 10 45  1  0
 11 46  1  6
 12 47  1  0
 12 48  1  0
 13 49  1  0
 13 50  1  0
 22 51  1  0
 22 52  1  0
 23 53  1  0
 23 54  1  0
 24 55  1  0
 24 56  1  0
 26 57  1  0
 26 58  1  0
 30 59  1  0
 31 60  1  0
 32 61  1  0
 33 62  1  0
 34 63  1  0
M  END
$$$$
