
     RDKit          3D

 32 33  0  0  0  0  0  0  0  0999 V2000
   -0.3608   -1.7790   -3.8533 N   0  0  0  0  0  0  0  0  0  0  0  0
   -0.2209   -0.8972   -3.1171 C   0  0  0  0  0  0  0  0  0  0  0  0
   -0.0434    0.2252   -2.1794 C   0  0  2  0  0  0  0  0  0  0  0  0
    1.4039    0.3051   -1.6856 C   0  0  0  0  0  0  0  0  0  0  0  0
    1.2950    0.6201   -0.1937 C   0  0  2  0  0  0  0  0  0  0  0  0
    2.4292    0.0446    0.6147 C   0  0  0  0  0  0  0  0  0  0  0  0
    3.3304    0.7798    1.3753 C   0  0  0  0  0  0  0  0  0  0  0  0
    4.2852   -0.0132    2.0236 C   0  0  0  0  0  0  0  0  0  0  0  0
    4.1426   -1.3726    1.7781 C   0  0  0  0  0  0  0  0  0  0  0  0
    2.8273   -1.5877    0.7534 S   0  0  0  0  0  0  0  0  0  0  0  0
   -0.0705    0.0860    0.2328 C   0  0  0  0  0  0  0  0  0  0  0  0
   -0.8670    0.0404   -0.9870 N   0  0  0  0  0  0  0  0  0  0  0  0
   -2.3134   -0.0211   -1.0485 C   0  0  0  0  0  0  0  0  0  0  0  0
   -2.8825    0.1540   -2.1607 O   0  0  0  0  0  0  0  0  0  0  0  0
   -3.2046   -0.2504    0.1575 C   0  0  1  0  0  0  0  0  0  0  0  0
   -2.5470   -1.0517    1.1893 N   0  0  0  0  0  0  0  0  0  0  0  0
   -3.7058    1.0824    0.7302 C   0  0  0  0  0  0  0  0  0  0  0  0
   -2.6634    1.8457    1.2207 F   0  0  0  0  0  0  0  0  0  0  0  0
   -0.3263    1.1762   -2.6813 H   0  0  0  0  0  0  0  0  0  0  0  0
    1.9335   -0.6625   -1.8413 H   0  0  0  0  0  0  0  0  0  0  0  0
    1.9649    1.1027   -2.2201 H   0  0  0  0  0  0  0  0  0  0  0  0
    1.2853    1.7280   -0.0772 H   0  0  0  0  0  0  0  0  0  0  0  0
    3.3012    1.8581    1.4613 H   0  0  0  0  0  0  0  0  0  0  0  0
    5.0617    0.3948    2.6566 H   0  0  0  0  0  0  0  0  0  0  0  0
    4.7713   -2.1562    2.1785 H   0  0  0  0  0  0  0  0  0  0  0  0
    0.0071   -0.9388    0.6546 H   0  0  0  0  0  0  0  0  0  0  0  0
   -0.5165    0.7689    0.9824 H   0  0  0  0  0  0  0  0  0  0  0  0
   -4.1023   -0.8113   -0.1922 H   0  0  0  0  0  0  0  0  0  0  0  0
   -2.3183   -1.9863    0.7780 H   0  0  0  0  0  0  0  0  0  0  0  0
   -3.2351   -1.2357    1.9556 H   0  0  0  0  0  0  0  0  0  0  0  0
   -4.2342    1.6598   -0.0585 H   0  0  0  0  0  0  0  0  0  0  0  0
   -4.4268    0.8916    1.5533 H   0  0  0  0  0  0  0  0  0  0  0  0
  1  2  3  0
  2  3  1  0
  3  4  1  0
  4  5  1  0
  5  6  1  0
  6  7  2  0
  7  8  1  0
  8  9  2  0
  9 10  1  0
  5 11  1  0
 11 12  1  0
 12 13  1  0
 13 14  2  0
 13 15  1  0
 15 16  1  0
 15 17  1  0
 17 18  1  0
 12  3  1  0
 10  6  1  0
  3 19  1  6
  4 20  1  0
  4 21  1  0
  5 22  1  6
  7 23  1  0
  8 24  1  0
  9 25  1  0
 11 26  1  0
 11 27  1  0
 15 28  1  6
 16 29  1  0
 16 30  1  0
 17 31  1  0
 17 32  1  0
M  END
$$$$
