
     RDKit          3D

 54 57  0  0  0  0  0  0  0  0999 V2000
   -2.8316    2.1340    2.4817 C   0  0  0  0  0  0  0  0  0  0  0  0
   -2.9152    1.0290    1.4817 C   0  0  0  0  0  0  0  0  0  0  0  0
   -4.0244    0.2918    1.2622 N   0  0  0  0  0  0  0  0  0  0  0  0
   -3.7764   -0.5203    0.2423 N   0  0  0  0  0  0  0  0  0  0  0  0
   -4.7587   -1.4094   -0.3079 C   0  0  0  0  0  0  0  0  0  0  0  0
   -4.4536   -2.7608   -0.5391 C   0  0  0  0  0  0  0  0  0  0  0  0
   -5.4248   -3.6234   -1.0570 C   0  0  0  0  0  0  0  0  0  0  0  0
   -6.7092   -3.1465   -1.3347 C   0  0  0  0  0  0  0  0  0  0  0  0
   -7.6503   -3.9844   -1.8352 F   0  0  0  0  0  0  0  0  0  0  0  0
   -7.0260   -1.8078   -1.0860 C   0  0  0  0  0  0  0  0  0  0  0  0
   -6.0570   -0.9433   -0.5673 C   0  0  0  0  0  0  0  0  0  0  0  0
   -2.5202   -0.3012   -0.2072 C   0  0  0  0  0  0  0  0  0  0  0  0
   -1.9566    0.6957    0.5452 C   0  0  0  0  0  0  0  0  0  0  0  0
   -0.6270    1.3248    0.2652 C   0  0  0  0  0  0  0  0  0  0  0  0
   -0.0750    0.8258   -1.0095 N   0  0  0  0  0  0  0  0  0  0  0  0
    0.9157    1.5915   -1.7262 C   0  0  0  0  0  0  0  0  0  0  0  0
    0.9960    1.4845   -2.9801 O   0  0  0  0  0  0  0  0  0  0  0  0
    1.9096    2.4792   -1.0150 C   0  0  0  0  0  0  0  0  0  0  0  0
    3.2520    1.7649   -0.7422 C   0  0  2  0  0  0  0  0  0  0  0  0
    3.8390    1.2776   -1.9952 N   0  0  0  0  0  0  0  0  0  0  0  0
    3.0728    0.6068    0.2640 C   0  0  0  0  0  0  0  0  0  0  0  0
    4.3971    0.0492    0.7257 C   0  0  0  0  0  0  0  0  0  0  0  0
    5.1331    0.7271    1.7128 C   0  0  0  0  0  0  0  0  0  0  0  0
    6.3709    0.2333    2.1356 C   0  0  0  0  0  0  0  0  0  0  0  0
    7.0731    0.8922    3.0901 F   0  0  0  0  0  0  0  0  0  0  0  0
    6.8861   -0.9375    1.5734 C   0  0  0  0  0  0  0  0  0  0  0  0
    6.1659   -1.6149    0.5863 C   0  0  0  0  0  0  0  0  0  0  0  0
    4.9267   -1.1263    0.1589 C   0  0  0  0  0  0  0  0  0  0  0  0
    4.2505   -1.7953   -0.8093 F   0  0  0  0  0  0  0  0  0  0  0  0
   -0.3919   -0.5461   -1.4573 C   0  0  0  0  0  0  0  0  0  0  0  0
   -1.9103   -0.7812   -1.4903 C   0  0  0  0  0  0  0  0  0  0  0  0
   -1.8121    2.1738    2.9196 H   0  0  0  0  0  0  0  0  0  0  0  0
   -3.0554    3.1006    1.9846 H   0  0  0  0  0  0  0  0  0  0  0  0
   -3.5653    1.9639    3.2973 H   0  0  0  0  0  0  0  0  0  0  0  0
   -3.4750   -3.1519   -0.2939 H   0  0  0  0  0  0  0  0  0  0  0  0
   -5.1832   -4.6635   -1.2340 H   0  0  0  0  0  0  0  0  0  0  0  0
   -8.0225   -1.4393   -1.2932 H   0  0  0  0  0  0  0  0  0  0  0  0
   -6.3123    0.0919   -0.3784 H   0  0  0  0  0  0  0  0  0  0  0  0
    0.0708    1.0902    1.0953 H   0  0  0  0  0  0  0  0  0  0  0  0
   -0.7769    2.4242    0.2064 H   0  0  0  0  0  0  0  0  0  0  0  0
    2.0998    3.3741   -1.6469 H   0  0  0  0  0  0  0  0  0  0  0  0
    1.4981    2.8647   -0.0602 H   0  0  0  0  0  0  0  0  0  0  0  0
    3.9377    2.5194   -0.2920 H   0  0  0  0  0  0  0  0  0  0  0  0
    3.9232    2.0831   -2.6573 H   0  0  0  0  0  0  0  0  0  0  0  0
    4.8207    0.9714   -1.8068 H   0  0  0  0  0  0  0  0  0  0  0  0
    2.5201    0.9749    1.1556 H   0  0  0  0  0  0  0  0  0  0  0  0
    2.4519   -0.1966   -0.1869 H   0  0  0  0  0  0  0  0  0  0  0  0
    4.7465    1.6385    2.1525 H   0  0  0  0  0  0  0  0  0  0  0  0
    7.8449   -1.3194    1.8999 H   0  0  0  0  0  0  0  0  0  0  0  0
    6.5706   -2.5191    0.1499 H   0  0  0  0  0  0  0  0  0  0  0  0
    0.0225   -0.7506   -2.4680 H   0  0  0  0  0  0  0  0  0  0  0  0
    0.0761   -1.2695   -0.7544 H   0  0  0  0  0  0  0  0  0  0  0  0
   -2.1062   -1.8597   -1.6485 H   0  0  0  0  0  0  0  0  0  0  0  0
   -2.3545   -0.2102   -2.3334 H   0  0  0  0  0  0  0  0  0  0  0  0
  1  2  1  0
  2  3  2  0
  3  4  1  0
  4  5  1  0
  5  6  2  0
  6  7  1  0
  7  8  2  0
  8  9  1  0
  8 10  1  0
 10 11  2  0
  4 12  1  0
 12 13  2  0
 13 14  1  0
 14 15  1  0
 15 16  1  0
 16 17  2  0
 16 18  1  0
 18 19  1  0
 19 20  1  0
 19 21  1  0
 21 22  1  0
 22 23  2  0
 23 24  1  0
 24 25  1  0
 24 26  2  0
 26 27  1  0
 27 28  2  0
 28 29  1  0
 15 30  1  0
 30 31  1  0
 13  2  1  0
 28 22  1  0
 11  5  1  0
 31 12  1  0
  1 32  1  0
  1 33  1  0
  1 34  1  0
  6 35  1  0
  7 36  1  0
 10 37  1  0
 11 38  1  0
 14 39  1  0
 14 40  1  0
 18 41  1  0
 18 42  1  0
 19 43  1  1
 20 44  1  0
 20 45  1  0
 21 46  1  0
 21 47  1  0
 23 48  1  0
 26 49  1  0
 27 50  1  0
 30 51  1  0
 30 52  1  0
 31 53  1  0
 31 54  1  0
M  END
$$$$
