
     RDKit          3D

 45 48  0  0  0  0  0  0  0  0999 V2000
   -8.9509   -1.4328    1.1591 N   0  0  0  0  0  0  0  0  0  0  0  0
   -7.9936   -0.8092    0.9752 C   0  0  0  0  0  0  0  0  0  0  0  0
   -6.8025   -0.0334    0.7463 C   0  0  0  0  0  0  0  0  0  0  0  0
   -6.9035    1.2847    0.2887 C   0  0  0  0  0  0  0  0  0  0  0  0
   -5.7486    2.0383    0.0706 C   0  0  0  0  0  0  0  0  0  0  0  0
   -4.4890    1.4789    0.3027 C   0  0  0  0  0  0  0  0  0  0  0  0
   -4.3697    0.1490    0.7527 C   0  0  0  0  0  0  0  0  0  0  0  0
   -3.0412   -0.4626    1.0138 C   0  0  0  0  0  0  0  0  0  0  0  0
   -1.8974   -0.0798    0.2936 C   0  0  0  0  0  0  0  0  0  0  0  0
   -0.6700   -0.6965    0.5858 C   0  0  0  0  0  0  0  0  0  0  0  0
    0.5362   -0.3422   -0.1192 N   0  0  0  0  0  0  0  0  0  0  0  0
    1.7992   -1.0300    0.0988 C   0  0  0  0  0  0  0  0  0  0  0  0
    2.7653   -0.4579   -0.9433 C   0  0  2  0  0  0  0  0  0  0  0  0
    4.1798   -0.2648   -0.4175 C   0  0  0  0  0  0  0  0  0  0  0  0
    5.2473   -0.9187   -1.0610 C   0  0  0  0  0  0  0  0  0  0  0  0
    6.5598   -0.7564   -0.6077 C   0  0  0  0  0  0  0  0  0  0  0  0
    7.5760   -1.3950   -1.2390 F   0  0  0  0  0  0  0  0  0  0  0  0
    6.8245    0.0625    0.4922 C   0  0  0  0  0  0  0  0  0  0  0  0
    8.0974    0.2206    0.9321 F   0  0  0  0  0  0  0  0  0  0  0  0
    5.7772    0.7212    1.1393 C   0  0  0  0  0  0  0  0  0  0  0  0
    4.4612    0.5646    0.6923 C   0  0  0  0  0  0  0  0  0  0  0  0
    3.4703    1.2246    1.3441 F   0  0  0  0  0  0  0  0  0  0  0  0
    2.1173    0.8515   -1.4421 C   0  0  1  0  0  0  0  0  0  0  0  0
    2.3268    1.0675   -2.8763 N   0  0  0  0  0  0  0  0  0  0  0  0
    0.6302    0.7230   -1.1078 C   0  0  0  0  0  0  0  0  0  0  0  0
   -0.6255   -1.6548    1.5507 N   0  0  0  0  0  0  0  0  0  0  0  0
   -1.7386   -2.0240    2.2325 C   0  0  0  0  0  0  0  0  0  0  0  0
   -2.9292   -1.4328    1.9615 N   0  0  0  0  0  0  0  0  0  0  0  0
   -5.5415   -0.5975    0.9811 C   0  0  0  0  0  0  0  0  0  0  0  0
   -7.8737    1.7306    0.1055 H   0  0  0  0  0  0  0  0  0  0  0  0
   -5.8296    3.0615   -0.2731 H   0  0  0  0  0  0  0  0  0  0  0  0
   -3.6147    2.0981    0.1523 H   0  0  0  0  0  0  0  0  0  0  0  0
   -1.9661    0.6572   -0.4937 H   0  0  0  0  0  0  0  0  0  0  0  0
    2.1369   -0.8568    1.1421 H   0  0  0  0  0  0  0  0  0  0  0  0
    1.6698   -2.1237   -0.0561 H   0  0  0  0  0  0  0  0  0  0  0  0
    2.7793   -1.1846   -1.7878 H   0  0  0  0  0  0  0  0  0  0  0  0
    5.0655   -1.5562   -1.9174 H   0  0  0  0  0  0  0  0  0  0  0  0
    5.9854    1.3571    1.9903 H   0  0  0  0  0  0  0  0  0  0  0  0
    2.5204    1.7291   -0.8912 H   0  0  0  0  0  0  0  0  0  0  0  0
    3.3559    1.1355   -3.0506 H   0  0  0  0  0  0  0  0  0  0  0  0
    1.9749    0.2420   -3.4145 H   0  0  0  0  0  0  0  0  0  0  0  0
    0.2500    1.6780   -0.6836 H   0  0  0  0  0  0  0  0  0  0  0  0
    0.0306    0.4466   -2.0025 H   0  0  0  0  0  0  0  0  0  0  0  0
   -1.6769   -2.7904    2.9926 H   0  0  0  0  0  0  0  0  0  0  0  0
   -5.4747   -1.6220    1.3294 H   0  0  0  0  0  0  0  0  0  0  0  0
  1  2  3  0
  2  3  1  0
  3  4  2  0
  4  5  1  0
  5  6  2  0
  6  7  1  0
  7  8  1  0
  8  9  2  0
  9 10  1  0
 10 11  1  0
 11 12  1  0
 12 13  1  0
 13 14  1  0
 14 15  2  0
 15 16  1  0
 16 17  1  0
 16 18  2  0
 18 19  1  0
 18 20  1  0
 20 21  2  0
 21 22  1  0
 13 23  1  0
 23 24  1  0
 23 25  1  0
 10 26  2  0
 26 27  1  0
 27 28  2  0
  7 29  2  0
 29  3  1  0
 28  8  1  0
 25 11  1  0
 21 14  1  0
  4 30  1  0
  5 31  1  0
  6 32  1  0
  9 33  1  0
 12 34  1  0
 12 35  1  0
 13 36  1  6
 15 37  1  0
 20 38  1  0
 23 39  1  1
 24 40  1  0
 24 41  1  0
 25 42  1  0
 25 43  1  0
 27 44  1  0
 29 45  1  0
M  END
$$$$
