
     RDKit          3D

 42 43  0  0  0  0  0  0  0  0999 V2000
    0.4305    0.8457    0.9728 N   0  0  0  0  0  0  0  0  0  0  0  0
    1.0549   -0.4800    1.0181 C   0  0  1  0  0  0  0  0  0  0  0  0
    0.0051   -1.6183    1.0039 C   0  0  0  0  0  0  0  0  0  0  0  0
   -0.7303   -1.7448   -0.3096 C   0  0  0  0  0  0  0  0  0  0  0  0
   -0.3360   -2.6219   -1.1264 O   0  0  0  0  0  0  0  0  0  0  0  0
   -1.8196   -0.8667   -0.6777 N   0  0  0  0  0  0  0  0  0  0  0  0
   -2.1070   -0.6603   -2.1048 C   0  0  0  0  0  0  0  0  0  0  0  0
   -2.4156    0.8087   -2.3628 C   0  0  0  0  0  0  0  0  0  0  0  0
   -3.4737    1.2671   -1.4736 N   0  0  0  0  0  0  0  0  0  0  0  0
   -3.5708    0.7929   -0.1271 C   0  0  0  0  0  0  0  0  0  0  0  0
   -4.3084    1.4053    0.6910 O   0  0  0  0  0  0  0  0  0  0  0  0
   -2.8228   -0.4430    0.3220 C   0  0  1  0  0  0  0  0  0  0  0  0
   -3.7974   -1.5975    0.5983 C   0  0  0  0  0  0  0  0  0  0  0  0
   -4.6368   -1.2773    1.6738 O   0  0  0  0  0  0  0  0  0  0  0  0
    2.0903   -0.6305   -0.1159 C   0  0  0  0  0  0  0  0  0  0  0  0
    3.2188    0.3599    0.0344 C   0  0  0  0  0  0  0  0  0  0  0  0
    4.2928    0.0696    0.8930 C   0  0  0  0  0  0  0  0  0  0  0  0
    5.3311    0.9906    1.0630 C   0  0  0  0  0  0  0  0  0  0  0  0
    6.3643    0.6986    1.8913 F   0  0  0  0  0  0  0  0  0  0  0  0
    5.3018    2.2118    0.3830 C   0  0  0  0  0  0  0  0  0  0  0  0
    6.3074    3.1065    0.5481 F   0  0  0  0  0  0  0  0  0  0  0  0
    4.2327    2.5137   -0.4650 C   0  0  0  0  0  0  0  0  0  0  0  0
    3.1912    1.5963   -0.6390 C   0  0  0  0  0  0  0  0  0  0  0  0
    2.1590    1.9156   -1.4606 F   0  0  0  0  0  0  0  0  0  0  0  0
   -0.1088    0.9573    0.0851 H   0  0  0  0  0  0  0  0  0  0  0  0
   -0.2352    0.9382    1.7736 H   0  0  0  0  0  0  0  0  0  0  0  0
    1.6004   -0.5635    1.9852 H   0  0  0  0  0  0  0  0  0  0  0  0
   -0.7007   -1.5008    1.8496 H   0  0  0  0  0  0  0  0  0  0  0  0
    0.5331   -2.5768    1.2037 H   0  0  0  0  0  0  0  0  0  0  0  0
   -1.2364   -0.9431   -2.7361 H   0  0  0  0  0  0  0  0  0  0  0  0
   -2.9738   -1.2883   -2.4044 H   0  0  0  0  0  0  0  0  0  0  0  0
   -2.7322    0.9428   -3.4194 H   0  0  0  0  0  0  0  0  0  0  0  0
   -1.5027    1.4176   -2.1866 H   0  0  0  0  0  0  0  0  0  0  0  0
   -4.0550    2.0842   -1.7674 H   0  0  0  0  0  0  0  0  0  0  0  0
   -2.3198   -0.1678    1.2692 H   0  0  0  0  0  0  0  0  0  0  0  0
   -4.4069   -1.8027   -0.3108 H   0  0  0  0  0  0  0  0  0  0  0  0
   -3.2193   -2.5147    0.8495 H   0  0  0  0  0  0  0  0  0  0  0  0
   -5.2443   -2.0535    1.7895 H   0  0  0  0  0  0  0  0  0  0  0  0
    2.5085   -1.6611   -0.0999 H   0  0  0  0  0  0  0  0  0  0  0  0
    1.5991   -0.5018   -1.1048 H   0  0  0  0  0  0  0  0  0  0  0  0
    4.3231   -0.8699    1.4312 H   0  0  0  0  0  0  0  0  0  0  0  0
    4.2094    3.4619   -0.9866 H   0  0  0  0  0  0  0  0  0  0  0  0
  1  2  1  0
  2  3  1  0
  3  4  1  0
  4  5  2  0
  4  6  1  0
  6  7  1  0
  7  8  1  0
  8  9  1  0
  9 10  1  0
 10 11  2  0
 10 12  1  0
 12 13  1  0
 13 14  1  0
  2 15  1  0
 15 16  1  0
 16 17  2  0
 17 18  1  0
 18 19  1  0
 18 20  2  0
 20 21  1  0
 20 22  1  0
 22 23  2  0
 23 24  1  0
 12  6  1  0
 23 16  1  0
  1 25  1  0
  1 26  1  0
  2 27  1  1
  3 28  1  0
  3 29  1  0
  7 30  1  0
  7 31  1  0
  8 32  1  0
  8 33  1  0
  9 34  1  0
 12 35  1  1
 13 36  1  0
 13 37  1  0
 14 38  1  0
 15 39  1  0
 15 40  1  0
 17 41  1  0
 22 42  1  0
M  END
$$$$
