
     RDKit          3D

 42 44  0  0  0  0  0  0  0  0999 V2000
   -4.1629   -3.0849   -1.2908 C   0  0  0  0  0  0  0  0  0  0  0  0
   -3.8717   -2.7727    0.1724 C   0  0  0  0  0  0  0  0  0  0  0  0
   -3.5296   -1.3976    0.3344 O   0  0  0  0  0  0  0  0  0  0  0  0
   -2.2855   -0.8622   -0.0231 C   0  0  0  0  0  0  0  0  0  0  0  0
   -1.3764   -1.6229   -0.4559 O   0  0  0  0  0  0  0  0  0  0  0  0
   -2.0374    0.5973    0.1137 C   0  0  0  0  0  0  0  0  0  0  0  0
   -3.1150    1.5070    0.1003 C   0  0  0  0  0  0  0  0  0  0  0  0
   -4.4242    1.0552   -0.0699 O   0  0  0  0  0  0  0  0  0  0  0  0
   -2.8784    2.8775    0.2484 C   0  0  0  0  0  0  0  0  0  0  0  0
   -1.5822    3.3729    0.3894 C   0  0  0  0  0  0  0  0  0  0  0  0
   -1.4231    4.7490    0.5705 O   0  0  0  0  0  0  0  0  0  0  0  0
   -0.4852    2.4853    0.3552 C   0  0  0  0  0  0  0  0  0  0  0  0
   -0.7225    1.0939    0.2626 C   0  0  0  0  0  0  0  0  0  0  0  0
    0.3563    0.1999    0.3164 O   0  0  0  0  0  0  0  0  0  0  0  0
    1.6805    0.6080    0.6535 C   0  0  0  0  0  0  0  0  0  0  0  0
    2.6737   -0.4278    0.1868 C   0  0  0  0  0  0  0  0  0  0  0  0
    2.5492   -1.0186   -1.0835 C   0  0  0  0  0  0  0  0  0  0  0  0
    3.4889   -1.9564   -1.5217 C   0  0  0  0  0  0  0  0  0  0  0  0
    4.5678   -2.3066   -0.7041 C   0  0  0  0  0  0  0  0  0  0  0  0
    5.4962   -3.2427   -1.1536 O   0  0  0  0  0  0  0  0  0  0  0  0
    4.7062   -1.7112    0.5568 C   0  0  0  0  0  0  0  0  0  0  0  0
    3.7679   -0.7732    0.9979 C   0  0  0  0  0  0  0  0  0  0  0  0
    1.9757    1.9691    0.0183 C   0  0  0  0  0  0  0  0  0  0  0  0
    0.9362    2.9983    0.4775 C   0  0  0  0  0  0  0  0  0  0  0  0
   -4.4830   -4.1434   -1.3901 H   0  0  0  0  0  0  0  0  0  0  0  0
   -4.9755   -2.4262   -1.6638 H   0  0  0  0  0  0  0  0  0  0  0  0
   -3.2545   -2.9279   -1.9089 H   0  0  0  0  0  0  0  0  0  0  0  0
   -3.0541   -3.4236    0.5517 H   0  0  0  0  0  0  0  0  0  0  0  0
   -4.7839   -2.9823    0.7697 H   0  0  0  0  0  0  0  0  0  0  0  0
   -5.2113    1.6932   -0.0857 H   0  0  0  0  0  0  0  0  0  0  0  0
   -3.7127    3.5681    0.2564 H   0  0  0  0  0  0  0  0  0  0  0  0
   -0.5304    5.1871    0.7556 H   0  0  0  0  0  0  0  0  0  0  0  0
    1.7370    0.7111    1.7606 H   0  0  0  0  0  0  0  0  0  0  0  0
    1.7259   -0.7522   -1.7349 H   0  0  0  0  0  0  0  0  0  0  0  0
    3.3805   -2.4088   -2.4993 H   0  0  0  0  0  0  0  0  0  0  0  0
    6.2892   -3.5168   -0.5853 H   0  0  0  0  0  0  0  0  0  0  0  0
    5.5417   -1.9720    1.1939 H   0  0  0  0  0  0  0  0  0  0  0  0
    3.8958   -0.3163    1.9715 H   0  0  0  0  0  0  0  0  0  0  0  0
    2.9916    2.3146    0.3102 H   0  0  0  0  0  0  0  0  0  0  0  0
    1.9390    1.8836   -1.0907 H   0  0  0  0  0  0  0  0  0  0  0  0
    1.1288    3.2701    1.5380 H   0  0  0  0  0  0  0  0  0  0  0  0
    1.0710    3.9050   -0.1498 H   0  0  0  0  0  0  0  0  0  0  0  0
  1  2  1  0
  2  3  1  0
  3  4  1  0
  4  5  2  0
  4  6  1  0
  6  7  2  0
  7  8  1  0
  7  9  1  0
  9 10  2  0
 10 11  1  0
 10 12  1  0
 12 13  2  0
 13 14  1  0
 14 15  1  0
 15 16  1  0
 16 17  2  0
 17 18  1  0
 18 19  2  0
 19 20  1  0
 19 21  1  0
 21 22  2  0
 15 23  1  0
 23 24  1  0
 13  6  1  0
 22 16  1  0
 24 12  1  0
  1 25  1  0
  1 26  1  0
  1 27  1  0
  2 28  1  0
  2 29  1  0
  8 30  1  0
  9 31  1  0
 11 32  1  0
 15 33  1  0
 17 34  1  0
 18 35  1  0
 20 36  1  0
 21 37  1  0
 22 38  1  0
 23 39  1  0
 23 40  1  0
 24 41  1  0
 24 42  1  0
M  END
$$$$
