
     RDKit          3D

 71 73  0  0  0  0  0  0  0  0999 V2000
   -2.8798   -2.6637    2.2107 C   0  0  0  0  0  0  0  0  0  0  0  0
   -3.2820   -3.2351    0.9198 N   0  0  0  0  0  0  0  0  0  0  0  0
   -3.6019   -4.6634    0.8227 C   0  0  0  0  0  0  0  0  0  0  0  0
   -3.3694   -2.4180   -0.2711 C   0  0  0  0  0  0  0  0  0  0  0  0
   -3.7361   -2.9506   -1.3556 O   0  0  0  0  0  0  0  0  0  0  0  0
   -2.9764   -0.9476   -0.2641 C   0  0  1  0  0  0  0  0  0  0  0  0
   -1.4644   -0.7788   -0.2400 C   0  0  0  0  0  0  0  0  0  0  0  0
   -0.6226   -1.5640   -1.0494 C   0  0  0  0  0  0  0  0  0  0  0  0
    0.7619   -1.3793   -1.0240 C   0  0  0  0  0  0  0  0  0  0  0  0
    1.3377   -0.4030   -0.1929 C   0  0  0  0  0  0  0  0  0  0  0  0
    2.8096   -0.2063   -0.1662 C   0  0  0  0  0  0  0  0  0  0  0  0
    3.5589   -0.2523   -1.3551 C   0  0  0  0  0  0  0  0  0  0  0  0
    4.9438   -0.0667   -1.3294 C   0  0  0  0  0  0  0  0  0  0  0  0
    5.6097    0.1686   -0.1149 C   0  0  0  0  0  0  0  0  0  0  0  0
    7.0391    0.3601   -0.0887 N   0  0  0  0  0  0  0  0  0  0  0  0
    7.5740    1.4122    0.6058 C   0  0  0  0  0  0  0  0  0  0  0  0
    8.9562    1.6120    0.6409 C   0  0  0  0  0  0  0  0  0  0  0  0
    9.7933    0.7290   -0.0383 C   0  0  0  0  0  0  0  0  0  0  0  0
    9.2430   -0.3398   -0.7429 C   0  0  0  0  0  0  0  0  0  0  0  0
    7.8565   -0.5109   -0.7585 C   0  0  0  0  0  0  0  0  0  0  0  0
    4.8621    0.2148    1.0737 C   0  0  0  0  0  0  0  0  0  0  0  0
    3.4771    0.0296    1.0486 C   0  0  0  0  0  0  0  0  0  0  0  0
    0.4968    0.3865    0.6100 C   0  0  0  0  0  0  0  0  0  0  0  0
   -0.8877    0.2025    0.5839 C   0  0  0  0  0  0  0  0  0  0  0  0
   -3.6515   -0.1387   -1.4100 C   0  0  2  0  0  0  0  0  0  0  0  0
   -3.1521   -0.5422   -2.7310 N   0  0  0  0  0  0  0  0  0  0  0  0
   -3.4945    1.3566   -1.1922 C   0  0  0  0  0  0  0  0  0  0  0  0
   -2.4775    1.9444   -1.6533 O   0  0  0  0  0  0  0  0  0  0  0  0
   -4.4456    2.1080   -0.4139 N   0  0  0  0  0  0  0  0  0  0  0  0
   -4.2747    3.5212   -0.1234 C   0  0  0  0  0  0  0  0  0  0  0  0
   -5.5618    3.9600    0.5617 C   0  0  0  0  0  0  0  0  0  0  0  0
   -6.2461    2.6757    1.0243 C   0  0  2  0  0  0  0  0  0  0  0  0
   -5.9425    2.4394    2.3555 F   0  0  0  0  0  0  0  0  0  0  0  0
   -5.6676    1.5640    0.1570 C   0  0  0  0  0  0  0  0  0  0  0  0
    1.4405   -1.1685    0.1434 O   0  0  0  0  0  0  0  0  0  0  0  0
    0.8624   -0.0593   -0.0015 C   0  0  0  0  0  0  0  0  0  0  0  0
    1.6196    1.1025   -0.0878 O   0  0  0  0  0  0  0  0  0  0  0  0
   -0.6301    0.0139   -0.0122 C   0  0  0  0  0  0  0  0  0  0  0  0
   -1.0422    1.1604   -0.6666 F   0  0  0  0  0  0  0  0  0  0  0  0
   -1.0973    0.0396    1.2882 F   0  0  0  0  0  0  0  0  0  0  0  0
   -1.1530   -1.0886   -0.6635 F   0  0  0  0  0  0  0  0  0  0  0  0
   -1.8730   -2.2057    2.1272 H   0  0  0  0  0  0  0  0  0  0  0  0
   -2.8305   -3.4369    3.0055 H   0  0  0  0  0  0  0  0  0  0  0  0
   -3.6167   -1.8983    2.5316 H   0  0  0  0  0  0  0  0  0  0  0  0
   -4.6485   -4.7897    0.4734 H   0  0  0  0  0  0  0  0  0  0  0  0
   -3.5005   -5.1791    1.8005 H   0  0  0  0  0  0  0  0  0  0  0  0
   -2.9139   -5.1523    0.1009 H   0  0  0  0  0  0  0  0  0  0  0  0
   -3.3848   -0.5270    0.6787 H   0  0  0  0  0  0  0  0  0  0  0  0
   -1.0360   -2.3205   -1.7037 H   0  0  0  0  0  0  0  0  0  0  0  0
    1.3839   -2.0120   -1.6446 H   0  0  0  0  0  0  0  0  0  0  0  0
    3.0713   -0.4117   -2.3086 H   0  0  0  0  0  0  0  0  0  0  0  0
    5.4965   -0.0900   -2.2600 H   0  0  0  0  0  0  0  0  0  0  0  0
    6.9329    2.1138    1.1267 H   0  0  0  0  0  0  0  0  0  0  0  0
    9.3735    2.4470    1.1887 H   0  0  0  0  0  0  0  0  0  0  0  0
   10.8659    0.8727   -0.0187 H   0  0  0  0  0  0  0  0  0  0  0  0
    9.8846   -1.0330   -1.2713 H   0  0  0  0  0  0  0  0  0  0  0  0
    7.4418   -1.3539   -1.2987 H   0  0  0  0  0  0  0  0  0  0  0  0
    5.3553    0.3782    2.0235 H   0  0  0  0  0  0  0  0  0  0  0  0
    2.9307    0.0509    1.9832 H   0  0  0  0  0  0  0  0  0  0  0  0
    0.9083    1.1612    1.2446 H   0  0  0  0  0  0  0  0  0  0  0  0
   -1.5125    0.8322    1.2055 H   0  0  0  0  0  0  0  0  0  0  0  0
   -4.7371   -0.3768   -1.3886 H   0  0  0  0  0  0  0  0  0  0  0  0
   -3.7368   -0.0759   -3.4626 H   0  0  0  0  0  0  0  0  0  0  0  0
   -2.1704   -0.2105   -2.8684 H   0  0  0  0  0  0  0  0  0  0  0  0
   -4.1177    4.0958   -1.0621 H   0  0  0  0  0  0  0  0  0  0  0  0
   -3.4046    3.6585    0.5549 H   0  0  0  0  0  0  0  0  0  0  0  0
   -6.2145    4.4805   -0.1735 H   0  0  0  0  0  0  0  0  0  0  0  0
   -5.3556    4.6463    1.4116 H   0  0  0  0  0  0  0  0  0  0  0  0
   -7.3497    2.7439    0.9089 H   0  0  0  0  0  0  0  0  0  0  0  0
   -6.3756    1.3049   -0.6598 H   0  0  0  0  0  0  0  0  0  0  0  0
   -5.4520    0.6630    0.7695 H   0  0  0  0  0  0  0  0  0  0  0  0
  1  2  1  0
  2  3  1  0
  2  4  1  0
  4  5  2  0
  4  6  1  0
  6  7  1  0
  7  8  2  0
  8  9  1  0
  9 10  2  0
 10 11  1  0
 11 12  2  0
 12 13  1  0
 13 14  2  0
 14 15  1  0
 15 16  2  0
 16 17  1  0
 17 18  2  0
 18 19  1  0
 19 20  2  0
 14 21  1  0
 21 22  2  0
 10 23  1  0
 23 24  2  0
  6 25  1  0
 25 26  1  0
 25 27  1  0
 27 28  2  0
 27 29  1  0
 29 30  1  0
 30 31  1  0
 31 32  1  0
 32 33  1  0
 32 34  1  0
 35 36  2  0
 36 37  1  0
 36 38  1  0
 38 39  1  0
 38 40  1  0
 38 41  1  0
 24  7  1  0
 34 29  1  0
 22 11  1  0
 20 15  1  0
  1 42  1  0
  1 43  1  0
  1 44  1  0
  3 45  1  0
  3 46  1  0
  3 47  1  0
  6 48  1  1
  8 49  1  0
  9 50  1  0
 12 51  1  0
 13 52  1  0
 16 53  1  0
 17 54  1  0
 18 55  1  0
 19 56  1  0
 20 57  1  0
 21 58  1  0
 22 59  1  0
 23 60  1  0
 24 61  1  0
 25 62  1  6
 26 63  1  0
 26 64  1  0
 30 65  1  0
 30 66  1  0
 31 67  1  0
 31 68  1  0
 32 69  1  1
 34 70  1  0
 34 71  1  0
M  CHG  2  15   1  37  -1
M  END
$$$$
