
     RDKit          3D

 49 51  0  0  0  0  0  0  0  0999 V2000
    7.6890    2.2510    0.7344 C   0  0  0  0  0  0  0  0  0  0  0  0
    6.7132    0.8717    1.2882 S   0  0  0  0  0  0  0  0  0  0  0  0
    7.5487   -0.3775    1.2637 O   0  0  0  0  0  0  0  0  0  0  0  0
    6.2520    1.1156    2.6978 O   0  0  0  0  0  0  0  0  0  0  0  0
    5.3202    0.6789    0.2295 C   0  0  0  0  0  0  0  0  0  0  0  0
    5.4081   -0.1312   -0.9106 C   0  0  0  0  0  0  0  0  0  0  0  0
    4.3058   -0.2755   -1.7581 C   0  0  0  0  0  0  0  0  0  0  0  0
    3.1072    0.4016   -1.4826 C   0  0  0  0  0  0  0  0  0  0  0  0
    1.9087    0.2148   -2.3704 C   0  0  0  0  0  0  0  0  0  0  0  0
    1.0844   -0.9303   -1.8797 C   0  0  0  0  0  0  0  0  0  0  0  0
    0.1667   -0.8188   -0.8955 N   0  0  0  0  0  0  0  0  0  0  0  0
   -0.3952   -2.0187   -0.5835 C   0  0  0  0  0  0  0  0  0  0  0  0
   -1.4312   -2.1462    0.4572 C   0  0  0  0  0  0  0  0  0  0  0  0
   -1.9448   -3.2743    0.6908 O   0  0  0  0  0  0  0  0  0  0  0  0
   -1.8566   -0.9957    1.2040 N   0  0  0  0  0  0  0  0  0  0  0  0
   -2.9381   -1.0530    2.1847 C   0  0  0  0  0  0  0  0  0  0  0  0
   -4.2566   -1.2876    1.5010 C   0  0  0  0  0  0  0  0  0  0  0  0
   -4.7896   -2.4268    1.5906 O   0  0  0  0  0  0  0  0  0  0  0  0
   -4.9008   -0.2616    0.7202 N   0  0  0  0  0  0  0  0  0  0  0  0
   -6.0635   -0.5352   -0.1100 C   0  0  0  0  0  0  0  0  0  0  0  0
   -6.4548    0.8041   -0.7265 C   0  0  0  0  0  0  0  0  0  0  0  0
   -6.8062    0.6560   -2.0578 F   0  0  0  0  0  0  0  0  0  0  0  0
   -7.5174    1.3540   -0.0278 F   0  0  0  0  0  0  0  0  0  0  0  0
   -5.2236    1.6967   -0.5808 C   0  0  0  0  0  0  0  0  0  0  0  0
   -4.4308    1.1118    0.5884 C   0  0  1  0  0  0  0  0  0  0  0  0
   -4.6988    1.8565    1.8297 C   0  0  0  0  0  0  0  0  0  0  0  0
   -4.9093    2.4412    2.8059 N   0  0  0  0  0  0  0  0  0  0  0  0
    0.0885   -3.1015   -1.3179 C   0  0  0  0  0  0  0  0  0  0  0  0
    1.2566   -2.5251   -2.3815 S   0  0  0  0  0  0  0  0  0  0  0  0
    3.0204    1.2083   -0.3367 C   0  0  0  0  0  0  0  0  0  0  0  0
    4.1234    1.3515    0.5100 C   0  0  0  0  0  0  0  0  0  0  0  0
    8.0349    2.0673   -0.3038 H   0  0  0  0  0  0  0  0  0  0  0  0
    7.0737    3.1741    0.7592 H   0  0  0  0  0  0  0  0  0  0  0  0
    8.5681    2.3757    1.3995 H   0  0  0  0  0  0  0  0  0  0  0  0
    6.3282   -0.6518   -1.1433 H   0  0  0  0  0  0  0  0  0  0  0  0
    4.3860   -0.9153   -2.6284 H   0  0  0  0  0  0  0  0  0  0  0  0
    1.2894    1.1379   -2.3806 H   0  0  0  0  0  0  0  0  0  0  0  0
    2.2285    0.0231   -3.4176 H   0  0  0  0  0  0  0  0  0  0  0  0
   -1.3587   -0.0864    1.0738 H   0  0  0  0  0  0  0  0  0  0  0  0
   -2.7323   -1.8633    2.9176 H   0  0  0  0  0  0  0  0  0  0  0  0
   -2.9769   -0.1016    2.7544 H   0  0  0  0  0  0  0  0  0  0  0  0
   -6.8922   -0.9467    0.5064 H   0  0  0  0  0  0  0  0  0  0  0  0
   -5.7878   -1.2664   -0.9011 H   0  0  0  0  0  0  0  0  0  0  0  0
   -4.6077    1.6241   -1.5047 H   0  0  0  0  0  0  0  0  0  0  0  0
   -5.5030    2.7641   -0.4334 H   0  0  0  0  0  0  0  0  0  0  0  0
   -3.3451    1.1408    0.3593 H   0  0  0  0  0  0  0  0  0  0  0  0
   -0.2219   -4.1334   -1.2191 H   0  0  0  0  0  0  0  0  0  0  0  0
    2.0984    1.7247   -0.0991 H   0  0  0  0  0  0  0  0  0  0  0  0
    4.0429    1.9857    1.3837 H   0  0  0  0  0  0  0  0  0  0  0  0
  1  2  1  0
  2  3  2  0
  2  4  2  0
  2  5  1  0
  5  6  2  0
  6  7  1  0
  7  8  2  0
  8  9  1  0
  9 10  1  0
 10 11  2  0
 11 12  1  0
 12 13  1  0
 13 14  2  0
 13 15  1  0
 15 16  1  0
 16 17  1  0
 17 18  2  0
 17 19  1  0
 19 20  1  0
 20 21  1  0
 21 22  1  0
 21 23  1  0
 21 24  1  0
 24 25  1  0
 25 26  1  0
 26 27  3  0
 12 28  2  0
 28 29  1  0
  8 30  1  0
 30 31  2  0
 31  5  1  0
 29 10  1  0
 25 19  1  0
  1 32  1  0
  1 33  1  0
  1 34  1  0
  6 35  1  0
  7 36  1  0
  9 37  1  0
  9 38  1  0
 15 39  1  0
 16 40  1  0
 16 41  1  0
 20 42  1  0
 20 43  1  0
 24 44  1  0
 24 45  1  0
 25 46  1  6
 28 47  1  0
 30 48  1  0
 31 49  1  0
M  END
$$$$
