
     RDKit          3D

 58 60  0  0  0  0  0  0  0  0999 V2000
    4.2603   -1.7851    0.2795 N   0  0  0  0  0  0  0  0  0  0  0  0
    2.9148   -1.3648   -0.1229 C   0  0  1  0  0  0  0  0  0  0  0  0
    1.8880   -2.4776    0.1873 C   0  0  0  0  0  0  0  0  0  0  0  0
    0.5416   -2.1823   -0.4255 C   0  0  0  0  0  0  0  0  0  0  0  0
    0.4520   -2.0921   -1.6800 O   0  0  0  0  0  0  0  0  0  0  0  0
   -0.6289   -1.9625    0.3841 N   0  0  0  0  0  0  0  0  0  0  0  0
   -0.8244   -2.7017    1.6437 C   0  0  0  0  0  0  0  0  0  0  0  0
   -2.2968   -3.0986    1.8148 C   0  0  0  0  0  0  0  0  0  0  0  0
   -3.1682   -1.9848    1.4611 N   0  0  0  0  0  0  0  0  0  0  0  0
   -4.4675   -1.9311    1.6983 N   0  0  0  0  0  0  0  0  0  0  0  0
   -4.9985   -0.8770    1.0930 N   0  0  0  0  0  0  0  0  0  0  0  0
   -4.0010   -0.2415    0.4369 C   0  0  0  0  0  0  0  0  0  0  0  0
   -4.2130    0.9450   -0.4238 C   0  0  0  0  0  0  0  0  0  0  0  0
   -3.2082    1.9122   -0.6095 C   0  0  0  0  0  0  0  0  0  0  0  0
   -3.4387    3.0246   -1.4249 C   0  0  0  0  0  0  0  0  0  0  0  0
   -4.6741    3.1889   -2.0549 C   0  0  0  0  0  0  0  0  0  0  0  0
   -5.6849    2.2447   -1.8640 C   0  0  0  0  0  0  0  0  0  0  0  0
   -5.4593    1.1312   -1.0490 C   0  0  0  0  0  0  0  0  0  0  0  0
   -2.8378   -0.9624    0.6612 C   0  0  0  0  0  0  0  0  0  0  0  0
   -1.4584   -0.7791    0.1043 C   0  0  0  0  0  0  0  0  0  0  0  0
    2.5449   -0.0462    0.5879 C   0  0  0  0  0  0  0  0  0  0  0  0
    3.4768    1.0723    0.1929 C   0  0  0  0  0  0  0  0  0  0  0  0
    4.5906    1.3778    0.9937 C   0  0  0  0  0  0  0  0  0  0  0  0
    5.4723    2.3963    0.6185 C   0  0  0  0  0  0  0  0  0  0  0  0
    6.5422    2.6853    1.3999 F   0  0  0  0  0  0  0  0  0  0  0  0
    5.2528    3.1127   -0.5619 C   0  0  0  0  0  0  0  0  0  0  0  0
    6.1077    4.0999   -0.9273 F   0  0  0  0  0  0  0  0  0  0  0  0
    4.1532    2.8089   -1.3694 C   0  0  0  0  0  0  0  0  0  0  0  0
    3.2683    1.7909   -0.9992 C   0  0  0  0  0  0  0  0  0  0  0  0
    2.2116    1.5056   -1.8021 F   0  0  0  0  0  0  0  0  0  0  0  0
   -0.2818   -0.7770    1.7744 O   0  0  0  0  0  0  0  0  0  0  0  0
    0.0160   -0.2335    0.3958 P   0  0  0  0  0  0  0  0  0  0  0  0
   -1.3041   -0.5245   -0.6225 O   0  0  0  0  0  0  0  0  0  0  0  0
    0.2993    1.4316    0.4986 O   0  0  0  0  0  0  0  0  0  0  0  0
    1.3880   -1.0045   -0.2248 O   0  0  0  0  0  0  0  0  0  0  0  0
    4.2477   -2.0771    1.2844 H   0  0  0  0  0  0  0  0  0  0  0  0
    4.5369   -2.6197   -0.2872 H   0  0  0  0  0  0  0  0  0  0  0  0
    2.9234   -1.1857   -1.2220 H   0  0  0  0  0  0  0  0  0  0  0  0
    1.8129   -2.5990    1.2878 H   0  0  0  0  0  0  0  0  0  0  0  0
    2.2486   -3.4424   -0.2298 H   0  0  0  0  0  0  0  0  0  0  0  0
   -0.5086   -2.0604    2.4949 H   0  0  0  0  0  0  0  0  0  0  0  0
   -0.2168   -3.6324    1.6558 H   0  0  0  0  0  0  0  0  0  0  0  0
   -2.4840   -3.4043    2.8664 H   0  0  0  0  0  0  0  0  0  0  0  0
   -2.5250   -3.9582    1.1484 H   0  0  0  0  0  0  0  0  0  0  0  0
   -2.2580    1.8344   -0.1049 H   0  0  0  0  0  0  0  0  0  0  0  0
   -2.6610    3.7651   -1.5611 H   0  0  0  0  0  0  0  0  0  0  0  0
   -4.8505    4.0513   -2.6846 H   0  0  0  0  0  0  0  0  0  0  0  0
   -6.6443    2.3751   -2.3477 H   0  0  0  0  0  0  0  0  0  0  0  0
   -6.2549    0.4081   -0.9176 H   0  0  0  0  0  0  0  0  0  0  0  0
   -0.9849    0.1020    0.5830 H   0  0  0  0  0  0  0  0  0  0  0  0
   -1.5358   -0.6077   -0.9908 H   0  0  0  0  0  0  0  0  0  0  0  0
    1.5057    0.2482    0.3297 H   0  0  0  0  0  0  0  0  0  0  0  0
    2.5674   -0.1934    1.6904 H   0  0  0  0  0  0  0  0  0  0  0  0
    4.7762    0.8254    1.9067 H   0  0  0  0  0  0  0  0  0  0  0  0
    3.9876    3.3614   -2.2855 H   0  0  0  0  0  0  0  0  0  0  0  0
   -2.0396    0.0206   -0.2445 H   0  0  0  0  0  0  0  0  0  0  0  0
    0.4297    1.7233   -0.4389 H   0  0  0  0  0  0  0  0  0  0  0  0
    1.4926   -0.6359   -1.1381 H   0  0  0  0  0  0  0  0  0  0  0  0
  1  2  1  0
  2  3  1  0
  3  4  1  0
  4  5  2  0
  4  6  1  0
  6  7  1  0
  7  8  1  0
  8  9  1  0
  9 10  1  0
 10 11  2  0
 11 12  1  0
 12 13  1  0
 13 14  2  0
 14 15  1  0
 15 16  2  0
 16 17  1  0
 17 18  2  0
 12 19  2  0
 19 20  1  0
  2 21  1  0
 21 22  1  0
 22 23  2  0
 23 24  1  0
 24 25  1  0
 24 26  2  0
 26 27  1  0
 26 28  1  0
 28 29  2  0
 29 30  1  0
 31 32  2  0
 32 33  1  0
 32 34  1  0
 32 35  1  0
 20  6  1  0
 29 22  1  0
 19  9  1  0
 18 13  1  0
  1 36  1  0
  1 37  1  0
  2 38  1  6
  3 39  1  0
  3 40  1  0
  7 41  1  0
  7 42  1  0
  8 43  1  0
  8 44  1  0
 14 45  1  0
 15 46  1  0
 16 47  1  0
 17 48  1  0
 18 49  1  0
 20 50  1  0
 20 51  1  0
 21 52  1  0
 21 53  1  0
 23 54  1  0
 28 55  1  0
 33 56  1  0
 34 57  1  0
 35 58  1  0
M  END
$$$$
