
     RDKit          3D

 51 52  0  0  0  0  0  0  0  0999 V2000
    2.9463    3.3210    0.4874 N   0  0  0  0  0  0  0  0  0  0  0  0
    3.4507    1.9882    0.8374 C   0  0  1  0  0  0  0  0  0  0  0  0
    2.7309    1.3877    2.0764 C   0  0  0  0  0  0  0  0  0  0  0  0
    1.1889    1.3980    2.0683 C   0  0  0  0  0  0  0  0  0  0  0  0
    0.5765    0.4538    1.0244 C   0  0  0  0  0  0  0  0  0  0  0  0
   -0.9183    0.2367    1.2823 C   0  0  0  0  0  0  0  0  0  0  0  0
   -1.5003   -0.6362    0.2632 N   0  0  0  0  0  0  0  0  0  0  0  0
   -2.8882   -0.9823    0.2765 C   0  0  0  0  0  0  0  0  0  0  0  0
   -3.6441   -0.5413    1.1858 O   0  0  0  0  0  0  0  0  0  0  0  0
   -3.3944   -1.8156   -0.7270 O   0  0  0  0  0  0  0  0  0  0  0  0
   -4.7702   -2.1785   -0.8242 C   0  0  0  0  0  0  0  0  0  0  0  0
   -5.5925   -1.0035   -1.2788 C   0  0  0  0  0  0  0  0  0  0  0  0
   -5.4359   -0.5004   -2.5805 C   0  0  0  0  0  0  0  0  0  0  0  0
   -6.1833    0.6032   -3.0038 C   0  0  0  0  0  0  0  0  0  0  0  0
   -7.0879    1.2130   -2.1303 C   0  0  0  0  0  0  0  0  0  0  0  0
   -7.2457    0.7211   -0.8316 C   0  0  0  0  0  0  0  0  0  0  0  0
   -6.5003   -0.3825   -0.4044 C   0  0  0  0  0  0  0  0  0  0  0  0
    3.4323    1.0597   -0.3598 C   0  0  0  0  0  0  0  0  0  0  0  0
    2.7252    1.3486   -1.3642 O   0  0  0  0  0  0  0  0  0  0  0  0
    4.1997   -0.1575   -0.3725 N   0  0  0  0  0  0  0  0  0  0  0  0
    3.9406   -1.2335   -1.3125 C   0  0  0  0  0  0  0  0  0  0  0  0
    4.9105   -2.3455   -0.9391 C   0  0  0  0  0  0  0  0  0  0  0  0
    5.9932   -1.6845   -0.0904 C   0  0  0  0  0  0  0  0  0  0  0  0
    5.3745   -0.4013    0.4492 C   0  0  0  0  0  0  0  0  0  0  0  0
    1.9556    3.2600    0.1598 H   0  0  0  0  0  0  0  0  0  0  0  0
    2.9633    3.9259    1.3407 H   0  0  0  0  0  0  0  0  0  0  0  0
    4.5169    2.1180    1.1219 H   0  0  0  0  0  0  0  0  0  0  0  0
    3.0785    0.3481    2.2506 H   0  0  0  0  0  0  0  0  0  0  0  0
    3.0574    1.9701    2.9658 H   0  0  0  0  0  0  0  0  0  0  0  0
    0.8585    1.0691    3.0783 H   0  0  0  0  0  0  0  0  0  0  0  0
    0.8000    2.4286    1.9303 H   0  0  0  0  0  0  0  0  0  0  0  0
    1.0960   -0.5294    1.0505 H   0  0  0  0  0  0  0  0  0  0  0  0
    0.6904    0.8970    0.0153 H   0  0  0  0  0  0  0  0  0  0  0  0
   -1.4425    1.2173    1.2656 H   0  0  0  0  0  0  0  0  0  0  0  0
   -1.0595   -0.2283    2.2824 H   0  0  0  0  0  0  0  0  0  0  0  0
   -0.9037   -1.0228   -0.5034 H   0  0  0  0  0  0  0  0  0  0  0  0
   -4.8696   -2.9963   -1.5687 H   0  0  0  0  0  0  0  0  0  0  0  0
   -5.1275   -2.5764    0.1511 H   0  0  0  0  0  0  0  0  0  0  0  0
   -4.7345   -0.9621   -3.2646 H   0  0  0  0  0  0  0  0  0  0  0  0
   -6.0598    0.9866   -4.0084 H   0  0  0  0  0  0  0  0  0  0  0  0
   -7.6651    2.0676   -2.4589 H   0  0  0  0  0  0  0  0  0  0  0  0
   -7.9444    1.1960   -0.1551 H   0  0  0  0  0  0  0  0  0  0  0  0
   -6.6297   -0.7494    0.6062 H   0  0  0  0  0  0  0  0  0  0  0  0
    4.1346   -0.8801   -2.3486 H   0  0  0  0  0  0  0  0  0  0  0  0
    2.8889   -1.5822   -1.2209 H   0  0  0  0  0  0  0  0  0  0  0  0
    5.3420   -2.8282   -1.8428 H   0  0  0  0  0  0  0  0  0  0  0  0
    4.3814   -3.1127   -0.3318 H   0  0  0  0  0  0  0  0  0  0  0  0
    6.8667   -1.4365   -0.7330 H   0  0  0  0  0  0  0  0  0  0  0  0
    6.3249   -2.3530    0.7336 H   0  0  0  0  0  0  0  0  0  0  0  0
    5.0785   -0.5360    1.5101 H   0  0  0  0  0  0  0  0  0  0  0  0
    6.0945    0.4408    0.3588 H   0  0  0  0  0  0  0  0  0  0  0  0
  1  2  1  0
  2  3  1  0
  3  4  1  0
  4  5  1  0
  5  6  1  0
  6  7  1  0
  7  8  1  0
  8  9  2  0
  8 10  1  0
 10 11  1  0
 11 12  1  0
 12 13  2  0
 13 14  1  0
 14 15  2  0
 15 16  1  0
 16 17  2  0
  2 18  1  0
 18 19  2  0
 18 20  1  0
 20 21  1  0
 21 22  1  0
 22 23  1  0
 23 24  1  0
 17 12  1  0
 24 20  1  0
  1 25  1  0
  1 26  1  0
  2 27  1  1
  3 28  1  0
  3 29  1  0
  4 30  1  0
  4 31  1  0
  5 32  1  0
  5 33  1  0
  6 34  1  0
  6 35  1  0
  7 36  1  0
 11 37  1  0
 11 38  1  0
 13 39  1  0
 14 40  1  0
 15 41  1  0
 16 42  1  0
 17 43  1  0
 21 44  1  0
 21 45  1  0
 22 46  1  0
 22 47  1  0
 23 48  1  0
 23 49  1  0
 24 50  1  0
 24 51  1  0
M  END
$$$$
