
     RDKit          3D

 42 43  0  0  0  0  0  0  0  0999 V2000
    3.9582    2.1028   -0.4600 N   0  0  0  0  0  0  0  0  0  0  0  0
    4.0871    1.0503    0.0035 C   0  0  0  0  0  0  0  0  0  0  0  0
    4.2559   -0.2892    0.5909 C   0  0  2  0  0  0  0  0  0  0  0  0
    5.4841   -0.9849    0.0039 C   0  0  0  0  0  0  0  0  0  0  0  0
    4.9492   -1.9091   -1.0846 C   0  0  0  0  0  0  0  0  0  0  0  0
    3.4991   -2.1832   -0.7099 C   0  0  0  0  0  0  0  0  0  0  0  0
    3.1267   -1.1382    0.2318 N   0  0  0  0  0  0  0  0  0  0  0  0
    1.8150   -1.0861    0.8307 C   0  0  0  0  0  0  0  0  0  0  0  0
    0.9637   -1.9652    0.5250 O   0  0  0  0  0  0  0  0  0  0  0  0
    1.4253   -0.0294    1.8407 C   0  0  0  0  0  0  0  0  0  0  0  0
    0.2145    0.7026    1.4372 N   0  0  0  0  0  0  0  0  0  0  0  0
    0.4742    1.5882    0.2930 C   0  0  0  0  0  0  0  0  0  0  0  0
   -0.7468    2.4637   -0.0075 C   0  0  0  0  0  0  0  0  0  0  0  0
   -1.8869    1.6558   -0.5554 C   0  0  0  0  0  0  0  0  0  0  0  0
   -1.8644    1.3026   -1.7656 O   0  0  0  0  0  0  0  0  0  0  0  0
   -2.9480    1.2268    0.3131 N   0  0  0  0  0  0  0  0  0  0  0  0
   -4.1426    0.5676   -0.1396 C   0  0  0  0  0  0  0  0  0  0  0  0
   -4.7469   -0.3998    0.6791 C   0  0  0  0  0  0  0  0  0  0  0  0
   -5.9209   -1.0399    0.2704 C   0  0  0  0  0  0  0  0  0  0  0  0
   -6.5097   -0.7083   -0.9524 C   0  0  0  0  0  0  0  0  0  0  0  0
   -5.9295    0.2695   -1.7644 C   0  0  0  0  0  0  0  0  0  0  0  0
   -4.7546    0.9114   -1.3596 C   0  0  0  0  0  0  0  0  0  0  0  0
    4.3597   -0.2129    1.6948 H   0  0  0  0  0  0  0  0  0  0  0  0
    5.9668   -1.6009    0.7946 H   0  0  0  0  0  0  0  0  0  0  0  0
    6.2421   -0.2768   -0.4000 H   0  0  0  0  0  0  0  0  0  0  0  0
    4.9889   -1.3862   -2.0656 H   0  0  0  0  0  0  0  0  0  0  0  0
    5.5393   -2.8492   -1.1455 H   0  0  0  0  0  0  0  0  0  0  0  0
    3.4093   -3.1772   -0.2200 H   0  0  0  0  0  0  0  0  0  0  0  0
    2.8470   -2.1442   -1.6094 H   0  0  0  0  0  0  0  0  0  0  0  0
    2.2465    0.6871    2.0426 H   0  0  0  0  0  0  0  0  0  0  0  0
    1.2205   -0.5401    2.8054 H   0  0  0  0  0  0  0  0  0  0  0  0
   -0.5316    0.0138    1.1827 H   0  0  0  0  0  0  0  0  0  0  0  0
    0.7461    0.9972   -0.6107 H   0  0  0  0  0  0  0  0  0  0  0  0
    1.3205    2.2681    0.5331 H   0  0  0  0  0  0  0  0  0  0  0  0
   -0.4627    3.2340   -0.7568 H   0  0  0  0  0  0  0  0  0  0  0  0
   -1.0631    2.9976    0.9147 H   0  0  0  0  0  0  0  0  0  0  0  0
   -2.7976    1.3122    1.3441 H   0  0  0  0  0  0  0  0  0  0  0  0
   -4.3007   -0.6642    1.6297 H   0  0  0  0  0  0  0  0  0  0  0  0
   -6.3753   -1.7915    0.9028 H   0  0  0  0  0  0  0  0  0  0  0  0
   -7.4197   -1.2028   -1.2668 H   0  0  0  0  0  0  0  0  0  0  0  0
   -6.3953    0.5371   -2.7040 H   0  0  0  0  0  0  0  0  0  0  0  0
   -4.3432    1.6908   -1.9867 H   0  0  0  0  0  0  0  0  0  0  0  0
  1  2  3  0
  2  3  1  0
  3  4  1  0
  4  5  1  0
  5  6  1  0
  6  7  1  0
  7  8  1  0
  8  9  2  0
  8 10  1  0
 10 11  1  0
 11 12  1  0
 12 13  1  0
 13 14  1  0
 14 15  2  0
 14 16  1  0
 16 17  1  0
 17 18  2  0
 18 19  1  0
 19 20  2  0
 20 21  1  0
 21 22  2  0
  7  3  1  0
 22 17  1  0
  3 23  1  1
  4 24  1  0
  4 25  1  0
  5 26  1  0
  5 27  1  0
  6 28  1  0
  6 29  1  0
 10 30  1  0
 10 31  1  0
 11 32  1  0
 12 33  1  0
 12 34  1  0
 13 35  1  0
 13 36  1  0
 16 37  1  0
 18 38  1  0
 19 39  1  0
 20 40  1  0
 21 41  1  0
 22 42  1  0
M  END
$$$$
