
     RDKit          3D

 49 52  0  0  0  0  0  0  0  0999 V2000
   -5.9577    1.1096   -3.8830 N   0  0  0  0  0  0  0  0  0  0  0  0
   -5.6517    0.6895   -2.8490 C   0  0  0  0  0  0  0  0  0  0  0  0
   -5.2613    0.1548   -1.5330 C   0  0  2  0  0  0  0  0  0  0  0  0
   -6.4320    0.2099   -0.5483 C   0  0  0  0  0  0  0  0  0  0  0  0
   -5.8335    0.6895    0.7726 C   0  0  0  0  0  0  0  0  0  0  0  0
   -6.7088    1.5301    1.4400 F   0  0  0  0  0  0  0  0  0  0  0  0
   -5.5406   -0.4006    1.5766 F   0  0  0  0  0  0  0  0  0  0  0  0
   -4.5483    1.4220    0.4031 C   0  0  0  0  0  0  0  0  0  0  0  0
   -4.2066    0.9639   -0.9350 N   0  0  0  0  0  0  0  0  0  0  0  0
   -2.9187    1.1709   -1.5496 C   0  0  0  0  0  0  0  0  0  0  0  0
   -2.6354    0.5751   -2.6242 O   0  0  0  0  0  0  0  0  0  0  0  0
   -1.8856    2.0670   -0.9262 C   0  0  0  0  0  0  0  0  0  0  0  0
   -1.2206    1.3872    0.1826 N   0  0  0  0  0  0  0  0  0  0  0  0
   -0.3499    0.2628   -0.0099 C   0  0  0  0  0  0  0  0  0  0  0  0
   -0.0334   -0.0979   -1.1762 O   0  0  0  0  0  0  0  0  0  0  0  0
    0.1350   -0.5079    1.1572 C   0  0  0  0  0  0  0  0  0  0  0  0
   -0.7995   -0.8750    2.1380 C   0  0  0  0  0  0  0  0  0  0  0  0
   -0.4037   -1.6524    3.2245 C   0  0  0  0  0  0  0  0  0  0  0  0
    0.8860   -2.0551    3.3416 N   0  0  0  0  0  0  0  0  0  0  0  0
    1.8309   -1.7134    2.4267 C   0  0  0  0  0  0  0  0  0  0  0  0
    3.1473   -2.1455    2.6060 C   0  0  0  0  0  0  0  0  0  0  0  0
    4.1386   -1.7818    1.6949 C   0  0  0  0  0  0  0  0  0  0  0  0
    3.8312   -0.9672    0.5929 C   0  0  0  0  0  0  0  0  0  0  0  0
    4.8958   -0.5636   -0.3610 C   0  0  0  0  0  0  0  0  0  0  0  0
    4.9531    0.7461   -0.8651 C   0  0  0  0  0  0  0  0  0  0  0  0
    5.9593    1.1104   -1.7601 C   0  0  0  0  0  0  0  0  0  0  0  0
    6.9074    0.1618   -2.1495 C   0  0  0  0  0  0  0  0  0  0  0  0
    7.8199    0.4808   -2.9576 O   0  0  0  0  0  0  0  0  0  0  0  0
    6.8455   -1.1059   -1.6562 N   0  0  0  0  0  0  0  0  0  0  0  0
    5.8730   -1.4830   -0.7813 C   0  0  0  0  0  0  0  0  0  0  0  0
    2.5049   -0.5341    0.4082 C   0  0  0  0  0  0  0  0  0  0  0  0
    1.4862   -0.9161    1.3071 C   0  0  0  0  0  0  0  0  0  0  0  0
   -4.9049   -0.8920   -1.6476 H   0  0  0  0  0  0  0  0  0  0  0  0
   -6.9107   -0.7878   -0.4386 H   0  0  0  0  0  0  0  0  0  0  0  0
   -7.2069    0.9385   -0.8799 H   0  0  0  0  0  0  0  0  0  0  0  0
   -4.7079    2.5218    0.3871 H   0  0  0  0  0  0  0  0  0  0  0  0
   -3.7443    1.1691    1.1256 H   0  0  0  0  0  0  0  0  0  0  0  0
   -2.3768    2.9920   -0.5562 H   0  0  0  0  0  0  0  0  0  0  0  0
   -1.1309    2.3733   -1.6828 H   0  0  0  0  0  0  0  0  0  0  0  0
   -1.3640    1.7574    1.1493 H   0  0  0  0  0  0  0  0  0  0  0  0
   -1.8394   -0.5838    2.0497 H   0  0  0  0  0  0  0  0  0  0  0  0
   -1.1273   -1.9446    3.9736 H   0  0  0  0  0  0  0  0  0  0  0  0
    3.4078   -2.7581    3.4605 H   0  0  0  0  0  0  0  0  0  0  0  0
    5.1542   -2.1148    1.8684 H   0  0  0  0  0  0  0  0  0  0  0  0
    4.2322    1.4917   -0.5541 H   0  0  0  0  0  0  0  0  0  0  0  0
    6.0024    2.1224   -2.1437 H   0  0  0  0  0  0  0  0  0  0  0  0
    7.5566   -1.8113   -1.9547 H   0  0  0  0  0  0  0  0  0  0  0  0
    5.8509   -2.5060   -0.4259 H   0  0  0  0  0  0  0  0  0  0  0  0
    2.2823    0.1004   -0.4372 H   0  0  0  0  0  0  0  0  0  0  0  0
  1  2  3  0
  2  3  1  0
  3  4  1  0
  4  5  1  0
  5  6  1  0
  5  7  1  0
  5  8  1  0
  8  9  1  0
  9 10  1  0
 10 11  2  0
 10 12  1  0
 12 13  1  0
 13 14  1  0
 14 15  2  0
 14 16  1  0
 16 17  2  0
 17 18  1  0
 18 19  2  0
 19 20  1  0
 20 21  2  0
 21 22  1  0
 22 23  2  0
 23 24  1  0
 24 25  1  0
 25 26  2  0
 26 27  1  0
 27 28  2  0
 27 29  1  0
 29 30  1  0
 23 31  1  0
 31 32  2  0
  9  3  1  0
 32 16  1  0
 32 20  1  0
 30 24  2  0
  3 33  1  6
  4 34  1  0
  4 35  1  0
  8 36  1  0
  8 37  1  0
 12 38  1  0
 12 39  1  0
 13 40  1  0
 17 41  1  0
 18 42  1  0
 21 43  1  0
 22 44  1  0
 25 45  1  0
 26 46  1  0
 29 47  1  0
 30 48  1  0
 31 49  1  0
M  END
$$$$
