
     RDKit          3D

 69 69  0  0  0  0  0  0  0  0999 V2000
    1.8474    4.1964    2.7396 C   0  0  0  0  0  0  0  0  0  0  0  0
    1.1720    3.0553    2.0395 C   0  0  0  0  0  0  0  0  0  0  0  0
    1.2900    2.9118    0.6486 C   0  0  0  0  0  0  0  0  0  0  0  0
    0.6440    1.8607   -0.0082 C   0  0  0  0  0  0  0  0  0  0  0  0
   -0.1364    0.9506    0.7169 C   0  0  0  0  0  0  0  0  0  0  0  0
   -0.8092   -0.1697    0.0214 C   0  0  0  0  0  0  0  0  0  0  0  0
   -0.1465   -1.4187   -0.0943 C   0  0  0  0  0  0  0  0  0  0  0  0
    1.2510   -1.6112    0.4782 C   0  0  0  0  0  0  0  0  0  0  0  0
    2.3098   -1.0999   -0.4671 C   0  0  0  0  0  0  0  0  0  0  0  0
    2.2362   -1.4119   -1.6870 O   0  0  0  0  0  0  0  0  0  0  0  0
    3.4315   -0.3198   -0.0007 N   0  0  0  0  0  0  0  0  0  0  0  0
    3.7123   -0.0652    1.4046 C   0  0  0  0  0  0  0  0  0  0  0  0
    5.1411    0.4588    1.4616 C   0  0  0  0  0  0  0  0  0  0  0  0
    5.4985    0.8651    0.0362 C   0  0  0  0  0  0  0  0  0  0  0  0
    4.5270    0.1013   -0.8670 C   0  0  2  0  0  0  0  0  0  0  0  0
    4.0361    0.9592   -2.0061 C   0  0  0  0  0  0  0  0  0  0  0  0
    4.3215    0.5988   -3.3577 N   0  0  0  0  0  0  0  0  0  0  0  0
    3.3754    2.0056   -1.7699 O   0  0  0  0  0  0  0  0  0  0  0  0
   -0.7989   -2.4649   -0.7827 C   0  0  0  0  0  0  0  0  0  0  0  0
   -0.1752   -3.8174   -0.9775 C   0  0  0  0  0  0  0  0  0  0  0  0
   -2.0556   -2.2772   -1.2532 N   0  0  0  0  0  0  0  0  0  0  0  0
   -2.7389   -1.1110   -1.1331 C   0  0  0  0  0  0  0  0  0  0  0  0
   -4.1566   -1.0904   -1.6695 C   0  0  0  0  0  0  0  0  0  0  0  0
   -5.0503   -2.1436   -0.9776 C   0  0  0  0  0  0  0  0  0  0  0  0
   -6.4089   -2.2334   -1.6835 C   0  0  0  0  0  0  0  0  0  0  0  0
   -5.2519   -1.8208    0.5101 C   0  0  0  0  0  0  0  0  0  0  0  0
   -2.1111    0.0035   -0.5201 C   0  0  0  0  0  0  0  0  0  0  0  0
   -2.8272    1.3405   -0.4090 C   0  0  0  0  0  0  0  0  0  0  0  0
   -3.8447    1.2804    0.6345 N   0  0  0  0  0  0  0  0  0  0  0  0
   -0.2812    1.1096    2.1021 C   0  0  0  0  0  0  0  0  0  0  0  0
    0.3671    2.1589    2.7598 C   0  0  0  0  0  0  0  0  0  0  0  0
    0.6878    0.0000    0.0000 Cl  0  0  0  0  0  0  0  0  0  0  0  0
    0.6878    0.0000    0.0000 Cl  0  0  0  0  0  0  0  0  0  0  0  0
    1.1783    5.0819    2.7327 H   0  0  0  0  0  0  0  0  0  0  0  0
    2.0828    3.9277    3.7915 H   0  0  0  0  0  0  0  0  0  0  0  0
    2.8003    4.4569    2.2313 H   0  0  0  0  0  0  0  0  0  0  0  0
    1.8856    3.6105    0.0745 H   0  0  0  0  0  0  0  0  0  0  0  0
    0.7466    1.7552   -1.0809 H   0  0  0  0  0  0  0  0  0  0  0  0
    1.4621   -2.6766    0.6988 H   0  0  0  0  0  0  0  0  0  0  0  0
    1.3113   -1.1071    1.4620 H   0  0  0  0  0  0  0  0  0  0  0  0
    3.0032    0.6944    1.7957 H   0  0  0  0  0  0  0  0  0  0  0  0
    3.6311   -1.0027    1.9967 H   0  0  0  0  0  0  0  0  0  0  0  0
    5.2277    1.3185    2.1614 H   0  0  0  0  0  0  0  0  0  0  0  0
    5.8239   -0.3529    1.7968 H   0  0  0  0  0  0  0  0  0  0  0  0
    5.3707    1.9664   -0.0629 H   0  0  0  0  0  0  0  0  0  0  0  0
    6.5537    0.6074   -0.2011 H   0  0  0  0  0  0  0  0  0  0  0  0
    5.0341   -0.8065   -1.2628 H   0  0  0  0  0  0  0  0  0  0  0  0
    4.8693   -0.2619   -3.5791 H   0  0  0  0  0  0  0  0  0  0  0  0
    3.9802    1.1952   -4.1439 H   0  0  0  0  0  0  0  0  0  0  0  0
    0.8333   -3.7198   -1.4296 H   0  0  0  0  0  0  0  0  0  0  0  0
   -0.7955   -4.4366   -1.6601 H   0  0  0  0  0  0  0  0  0  0  0  0
   -0.1026   -4.3427   -0.0023 H   0  0  0  0  0  0  0  0  0  0  0  0
   -4.1017   -1.3172   -2.7565 H   0  0  0  0  0  0  0  0  0  0  0  0
   -4.6457   -0.1019   -1.5804 H   0  0  0  0  0  0  0  0  0  0  0  0
   -4.5668   -3.1427   -1.0561 H   0  0  0  0  0  0  0  0  0  0  0  0
   -6.9423   -1.2596   -1.6342 H   0  0  0  0  0  0  0  0  0  0  0  0
   -7.0398   -3.0125   -1.2048 H   0  0  0  0  0  0  0  0  0  0  0  0
   -6.2694   -2.5124   -2.7498 H   0  0  0  0  0  0  0  0  0  0  0  0
   -4.2764   -1.8010    1.0406 H   0  0  0  0  0  0  0  0  0  0  0  0
   -5.7493   -0.8350    0.6332 H   0  0  0  0  0  0  0  0  0  0  0  0
   -5.8825   -2.6003    0.9883 H   0  0  0  0  0  0  0  0  0  0  0  0
   -3.2931    1.6036   -1.3817 H   0  0  0  0  0  0  0  0  0  0  0  0
   -2.1339    2.1812   -0.1991 H   0  0  0  0  0  0  0  0  0  0  0  0
   -3.3599    1.2102    1.5587 H   0  0  0  0  0  0  0  0  0  0  0  0
   -4.3577    2.1915    0.6341 H   0  0  0  0  0  0  0  0  0  0  0  0
   -0.8911    0.4180    2.6702 H   0  0  0  0  0  0  0  0  0  0  0  0
    0.2450    2.2695    3.8301 H   0  0  0  0  0  0  0  0  0  0  0  0
   -0.6878    0.0000    0.0000 H   0  0  0  0  0  0  0  0  0  0  0  0
   -0.6878    0.0000    0.0000 H   0  0  0  0  0  0  0  0  0  0  0  0
  1  2  1  0
  2  3  2  0
  3  4  1  0
  4  5  2  0
  5  6  1  0
  6  7  1  0
  7  8  1  0
  8  9  1  0
  9 10  2  0
  9 11  1  0
 11 12  1  0
 12 13  1  0
 13 14  1  0
 14 15  1  0
 15 16  1  0
 16 17  1  0
 16 18  2  0
  7 19  2  0
 19 20  1  0
 19 21  1  0
 21 22  2  0
 22 23  1  0
 23 24  1  0
 24 25  1  0
 24 26  1  0
 22 27  1  0
 27 28  1  0
 28 29  1  0
  5 30  1  0
 30 31  2  0
 31  2  1  0
 27  6  2  0
 15 11  1  0
  1 34  1  0
  1 35  1  0
  1 36  1  0
  3 37  1  0
  4 38  1  0
  8 39  1  0
  8 40  1  0
 12 41  1  0
 12 42  1  0
 13 43  1  0
 13 44  1  0
 14 45  1  0
 14 46  1  0
 15 47  1  6
 17 48  1  0
 17 49  1  0
 20 50  1  0
 20 51  1  0
 20 52  1  0
 23 53  1  0
 23 54  1  0
 24 55  1  0
 25 56  1  0
 25 57  1  0
 25 58  1  0
 26 59  1  0
 26 60  1  0
 26 61  1  0
 28 62  1  0
 28 63  1  0
 29 64  1  0
 29 65  1  0
 30 66  1  0
 31 67  1  0
 32 68  1  0
 33 69  1  0
M  END
$$$$
