
     RDKit          3D

 38 39  0  0  0  0  0  0  0  0999 V2000
   -4.4435   -0.9047    0.3818 C   0  0  0  0  0  0  0  0  0  0  0  0
   -3.8396   -0.9531   -1.0359 C   0  0  0  0  0  0  0  0  0  0  0  0
   -2.5267   -0.1548   -1.1724 C   0  0  0  0  0  0  0  0  0  0  0  0
   -1.7397   -0.1197    0.1476 C   0  0  0  0  0  0  0  0  0  0  0  0
   -0.4462    0.5510   -0.0755 N   0  0  0  0  0  0  0  0  0  0  0  0
    0.4732    0.3692    1.0567 C   0  0  0  0  0  0  0  0  0  0  0  0
    1.8733    0.8716    0.6860 C   0  0  0  0  0  0  0  0  0  0  0  0
    2.3797    0.1790   -0.5222 N   0  0  0  0  0  0  0  0  0  0  0  0
    3.4703    0.9343   -1.1538 C   0  0  0  0  0  0  0  0  0  0  0  0
    4.7750    0.4515   -0.5476 C   0  0  0  0  0  0  0  0  0  0  0  0
    4.4799   -0.9485   -0.0473 C   0  0  0  0  0  0  0  0  0  0  0  0
    2.9721   -1.1283   -0.1912 C   0  0  0  0  0  0  0  0  0  0  0  0
   -2.5690    0.5684    1.2701 C   0  0  0  0  0  0  0  0  0  0  0  0
   -4.0929    0.4011    1.1008 C   0  0  0  0  0  0  0  0  0  0  0  0
   -5.5481   -1.0104    0.3186 H   0  0  0  0  0  0  0  0  0  0  0  0
   -4.0582   -1.7600    0.9799 H   0  0  0  0  0  0  0  0  0  0  0  0
   -4.5769   -0.5508   -1.7646 H   0  0  0  0  0  0  0  0  0  0  0  0
   -3.6549   -2.0156   -1.3064 H   0  0  0  0  0  0  0  0  0  0  0  0
   -2.7606    0.8873   -1.4849 H   0  0  0  0  0  0  0  0  0  0  0  0
   -1.9028   -0.6120   -1.9713 H   0  0  0  0  0  0  0  0  0  0  0  0
   -1.5562   -1.1800    0.4385 H   0  0  0  0  0  0  0  0  0  0  0  0
   -0.6034    1.5760   -0.2257 H   0  0  0  0  0  0  0  0  0  0  0  0
    0.1143    0.9432    1.9394 H   0  0  0  0  0  0  0  0  0  0  0  0
    0.5284   -0.7021    1.3453 H   0  0  0  0  0  0  0  0  0  0  0  0
    2.5639    0.7377    1.5498 H   0  0  0  0  0  0  0  0  0  0  0  0
    1.7839    1.9661    0.5051 H   0  0  0  0  0  0  0  0  0  0  0  0
    3.3613    2.0368   -1.0504 H   0  0  0  0  0  0  0  0  0  0  0  0
    3.4690    0.7073   -2.2427 H   0  0  0  0  0  0  0  0  0  0  0  0
    5.0572    1.1081    0.3047 H   0  0  0  0  0  0  0  0  0  0  0  0
    5.5931    0.4528   -1.3006 H   0  0  0  0  0  0  0  0  0  0  0  0
    5.0219   -1.7063   -0.6548 H   0  0  0  0  0  0  0  0  0  0  0  0
    4.7851   -1.0501    1.0173 H   0  0  0  0  0  0  0  0  0  0  0  0
    2.5449   -1.5812    0.7301 H   0  0  0  0  0  0  0  0  0  0  0  0
    2.7630   -1.8298   -1.0282 H   0  0  0  0  0  0  0  0  0  0  0  0
   -2.3456    1.6567    1.3111 H   0  0  0  0  0  0  0  0  0  0  0  0
   -2.2661    0.1345    2.2481 H   0  0  0  0  0  0  0  0  0  0  0  0
   -4.5819    0.4197    2.0988 H   0  0  0  0  0  0  0  0  0  0  0  0
   -4.4974    1.2549    0.5133 H   0  0  0  0  0  0  0  0  0  0  0  0
  1  2  1  0
  2  3  1  0
  3  4  1  0
  4  5  1  0
  5  6  1  0
  6  7  1  0
  7  8  1  0
  8  9  1  0
  9 10  1  0
 10 11  1  0
 11 12  1  0
  4 13  1  0
 13 14  1  0
 14  1  1  0
 12  8  1  0
  1 15  1  0
  1 16  1  0
  2 17  1  0
  2 18  1  0
  3 19  1  0
  3 20  1  0
  4 21  1  0
  5 22  1  0
  6 23  1  0
  6 24  1  0
  7 25  1  0
  7 26  1  0
  9 27  1  0
  9 28  1  0
 10 29  1  0
 10 30  1  0
 11 31  1  0
 11 32  1  0
 12 33  1  0
 12 34  1  0
 13 35  1  0
 13 36  1  0
 14 37  1  0
 14 38  1  0
M  END
$$$$
