
     RDKit          3D

 46 49  0  0  0  0  0  0  0  0999 V2000
    6.6214    0.8922   -1.6133 C   0  0  0  0  0  0  0  0  0  0  0  0
    5.8905    0.4949   -0.4575 O   0  0  0  0  0  0  0  0  0  0  0  0
    4.4949    0.3462   -0.4083 C   0  0  0  0  0  0  0  0  0  0  0  0
    3.6802    0.5798   -1.5290 C   0  0  0  0  0  0  0  0  0  0  0  0
    2.2894    0.4245   -1.4472 C   0  0  0  0  0  0  0  0  0  0  0  0
    1.4987    0.6362   -2.5842 C   0  0  0  0  0  0  0  0  0  0  0  0
    0.1205    0.4534   -2.5261 C   0  0  0  0  0  0  0  0  0  0  0  0
   -0.4936    0.0794   -1.3315 C   0  0  0  0  0  0  0  0  0  0  0  0
    0.2684   -0.0841   -0.1542 C   0  0  0  0  0  0  0  0  0  0  0  0
    1.6845    0.0444   -0.2219 C   0  0  0  0  0  0  0  0  0  0  0  0
    2.5161   -0.2067    0.8900 C   0  0  0  0  0  0  0  0  0  0  0  0
    3.9129   -0.0528    0.8013 C   0  0  0  0  0  0  0  0  0  0  0  0
    4.7601   -0.2897    1.8964 O   0  0  0  0  0  0  0  0  0  0  0  0
    4.3210   -0.6965    3.1886 C   0  0  0  0  0  0  0  0  0  0  0  0
   -0.4464   -0.4473    1.1364 C   0  0  0  0  0  0  0  0  0  0  0  0
   -1.9560   -0.1311    1.1064 C   0  0  2  0  0  0  0  0  0  0  0  0
   -2.6096   -0.7369    2.2706 N   0  0  0  0  0  0  0  0  0  0  0  0
   -2.5684   -0.6682   -0.2040 C   0  0  1  0  0  0  0  0  0  0  0  0
   -4.0429   -0.3449   -0.3183 C   0  0  0  0  0  0  0  0  0  0  0  0
   -4.9985   -1.3586   -0.1239 C   0  0  0  0  0  0  0  0  0  0  0  0
   -6.3643   -1.0702   -0.2031 C   0  0  0  0  0  0  0  0  0  0  0  0
   -7.2751   -2.0572   -0.0153 F   0  0  0  0  0  0  0  0  0  0  0  0
   -6.7902    0.2334   -0.4721 C   0  0  0  0  0  0  0  0  0  0  0  0
   -8.1147    0.5142   -0.5482 F   0  0  0  0  0  0  0  0  0  0  0  0
   -5.8507    1.2501   -0.6595 C   0  0  0  0  0  0  0  0  0  0  0  0
   -4.4829    0.9688   -0.5811 C   0  0  0  0  0  0  0  0  0  0  0  0
   -3.5922    1.9770   -0.7612 F   0  0  0  0  0  0  0  0  0  0  0  0
   -1.8782   -0.1138   -1.3218 O   0  0  0  0  0  0  0  0  0  0  0  0
    7.7016    0.9290   -1.3639 H   0  0  0  0  0  0  0  0  0  0  0  0
    6.4709    0.1570   -2.4319 H   0  0  0  0  0  0  0  0  0  0  0  0
    6.2980    1.9027   -1.9412 H   0  0  0  0  0  0  0  0  0  0  0  0
    4.1242    0.8776   -2.4703 H   0  0  0  0  0  0  0  0  0  0  0  0
    1.9498    0.9262   -3.5260 H   0  0  0  0  0  0  0  0  0  0  0  0
   -0.4763    0.5975   -3.4179 H   0  0  0  0  0  0  0  0  0  0  0  0
    2.0909   -0.5388    1.8236 H   0  0  0  0  0  0  0  0  0  0  0  0
    3.6401    0.0680    3.6191 H   0  0  0  0  0  0  0  0  0  0  0  0
    5.2022   -0.8013    3.8541 H   0  0  0  0  0  0  0  0  0  0  0  0
    3.8054   -1.6780    3.1256 H   0  0  0  0  0  0  0  0  0  0  0  0
   -0.2935   -1.5316    1.3298 H   0  0  0  0  0  0  0  0  0  0  0  0
   -0.0123    0.1289    1.9811 H   0  0  0  0  0  0  0  0  0  0  0  0
   -2.0823    0.9753    1.1469 H   0  0  0  0  0  0  0  0  0  0  0  0
   -3.5884   -0.3739    2.3299 H   0  0  0  0  0  0  0  0  0  0  0  0
   -2.1335   -0.3906    3.1354 H   0  0  0  0  0  0  0  0  0  0  0  0
   -2.4228   -1.7719   -0.2318 H   0  0  0  0  0  0  0  0  0  0  0  0
   -4.6862   -2.3726    0.0934 H   0  0  0  0  0  0  0  0  0  0  0  0
   -6.1829    2.2599   -0.8640 H   0  0  0  0  0  0  0  0  0  0  0  0
  1  2  1  0
  2  3  1  0
  3  4  2  0
  4  5  1  0
  5  6  2  0
  6  7  1  0
  7  8  2  0
  8  9  1  0
  9 10  2  0
 10 11  1  0
 11 12  2  0
 12 13  1  0
 13 14  1  0
  9 15  1  0
 15 16  1  0
 16 17  1  0
 16 18  1  0
 18 19  1  0
 19 20  2  0
 20 21  1  0
 21 22  1  0
 21 23  2  0
 23 24  1  0
 23 25  1  0
 25 26  2  0
 26 27  1  0
 18 28  1  0
 12  3  1  0
 26 19  1  0
 10  5  1  0
 28  8  1  0
  1 29  1  0
  1 30  1  0
  1 31  1  0
  4 32  1  0
  6 33  1  0
  7 34  1  0
 11 35  1  0
 14 36  1  0
 14 37  1  0
 14 38  1  0
 15 39  1  0
 15 40  1  0
 16 41  1  1
 17 42  1  0
 17 43  1  0
 18 44  1  1
 20 45  1  0
 25 46  1  0
M  END
$$$$
