
     RDKit          3D

 62 64  0  0  0  0  0  0  0  0999 V2000
    0.6878    0.0000    0.0000 Cl  0  0  0  0  0  0  0  0  0  0  0  0
    2.1510    0.2540    1.8082 N   0  0  0  0  0  0  0  0  0  0  0  0
    1.8518   -0.1937    0.4427 C   0  0  1  0  0  0  0  0  0  0  0  0
    1.5745    0.9799   -0.5213 C   0  0  0  0  0  0  0  0  0  0  0  0
    0.3571    1.7585   -0.0950 C   0  0  0  0  0  0  0  0  0  0  0  0
    0.5274    2.8431    0.5262 O   0  0  0  0  0  0  0  0  0  0  0  0
   -0.9805    1.2653   -0.3300 N   0  0  0  0  0  0  0  0  0  0  0  0
   -1.2400    0.3435   -1.4502 C   0  0  0  0  0  0  0  0  0  0  0  0
   -2.7300    0.0046   -1.5737 C   0  0  0  0  0  0  0  0  0  0  0  0
   -3.2890   -0.3953   -0.1946 C   0  0  0  0  0  0  0  0  0  0  0  0
   -4.6880   -0.8916   -0.2868 N   0  0  0  0  0  0  0  0  0  0  0  0
   -5.1620   -1.5645    0.9526 C   0  0  0  0  0  0  0  0  0  0  0  0
   -6.2973   -0.8043    1.6547 C   0  0  0  0  0  0  0  0  0  0  0  0
   -7.4971   -0.5808    0.7204 C   0  0  0  0  0  0  0  0  0  0  0  0
   -7.0923   -0.4556   -0.7573 C   0  0  0  0  0  0  0  0  0  0  0  0
   -5.6541    0.0491   -0.9073 C   0  0  0  0  0  0  0  0  0  0  0  0
   -3.0937    0.7286    0.8653 C   0  0  0  0  0  0  0  0  0  0  0  0
   -2.1110    1.8282    0.4265 C   0  0  0  0  0  0  0  0  0  0  0  0
    2.9520   -1.0846   -0.0919 C   0  0  0  0  0  0  0  0  0  0  0  0
    2.6212   -2.1995   -0.5808 O   0  0  0  0  0  0  0  0  0  0  0  0
    4.3402   -0.6940   -0.1320 N   0  0  0  0  0  0  0  0  0  0  0  0
    5.3364   -1.4428   -0.9043 C   0  0  0  0  0  0  0  0  0  0  0  0
    6.6022   -0.7319   -0.6098 C   0  0  0  0  0  0  0  0  0  0  0  0
    7.8796   -1.0167   -1.0954 C   0  0  0  0  0  0  0  0  0  0  0  0
    8.9499   -0.2077   -0.6806 C   0  0  0  0  0  0  0  0  0  0  0  0
    8.7272    0.8634    0.2061 C   0  0  0  0  0  0  0  0  0  0  0  0
    7.4331    1.1303    0.6820 C   0  0  0  0  0  0  0  0  0  0  0  0
    6.3846    0.3133    0.2554 C   0  0  0  0  0  0  0  0  0  0  0  0
    4.9522    0.4040    0.6241 C   0  0  0  0  0  0  0  0  0  0  0  0
   -0.6878    0.0000    0.0000 H   0  0  0  0  0  0  0  0  0  0  0  0
    1.2479    0.3895    2.3189 H   0  0  0  0  0  0  0  0  0  0  0  0
    2.6155    1.1903    1.7924 H   0  0  0  0  0  0  0  0  0  0  0  0
    0.9281   -0.8164    0.4857 H   0  0  0  0  0  0  0  0  0  0  0  0
    1.4325    0.5956   -1.5533 H   0  0  0  0  0  0  0  0  0  0  0  0
    2.4484    1.6623   -0.5637 H   0  0  0  0  0  0  0  0  0  0  0  0
   -0.8945    0.8042   -2.4008 H   0  0  0  0  0  0  0  0  0  0  0  0
   -0.6778   -0.6015   -1.2925 H   0  0  0  0  0  0  0  0  0  0  0  0
   -3.2641    0.8942   -1.9714 H   0  0  0  0  0  0  0  0  0  0  0  0
   -2.8603   -0.8324   -2.2937 H   0  0  0  0  0  0  0  0  0  0  0  0
   -2.6580   -1.2558    0.1296 H   0  0  0  0  0  0  0  0  0  0  0  0
   -4.3368   -1.7216    1.6820 H   0  0  0  0  0  0  0  0  0  0  0  0
   -5.5314   -2.5761    0.6789 H   0  0  0  0  0  0  0  0  0  0  0  0
   -5.9184    0.1765    2.0110 H   0  0  0  0  0  0  0  0  0  0  0  0
   -6.6270   -1.3744    2.5501 H   0  0  0  0  0  0  0  0  0  0  0  0
   -8.2107   -1.4271    0.8254 H   0  0  0  0  0  0  0  0  0  0  0  0
   -8.0292    0.3422    1.0386 H   0  0  0  0  0  0  0  0  0  0  0  0
   -7.7891    0.2360   -1.2787 H   0  0  0  0  0  0  0  0  0  0  0  0
   -7.1734   -1.4507   -1.2481 H   0  0  0  0  0  0  0  0  0  0  0  0
   -5.4447    0.1273   -1.9949 H   0  0  0  0  0  0  0  0  0  0  0  0
   -5.5770    1.0662   -0.4695 H   0  0  0  0  0  0  0  0  0  0  0  0
   -2.7103    0.2676    1.8021 H   0  0  0  0  0  0  0  0  0  0  0  0
   -4.0497    1.2188    1.1302 H   0  0  0  0  0  0  0  0  0  0  0  0
   -2.6409    2.5658   -0.2146 H   0  0  0  0  0  0  0  0  0  0  0  0
   -1.7617    2.3644    1.3355 H   0  0  0  0  0  0  0  0  0  0  0  0
    5.3921   -2.4951   -0.5524 H   0  0  0  0  0  0  0  0  0  0  0  0
    5.1031   -1.3921   -1.9892 H   0  0  0  0  0  0  0  0  0  0  0  0
    8.0425   -1.8422   -1.7761 H   0  0  0  0  0  0  0  0  0  0  0  0
    9.9495   -0.4085   -1.0436 H   0  0  0  0  0  0  0  0  0  0  0  0
    9.5562    1.4831    0.5224 H   0  0  0  0  0  0  0  0  0  0  0  0
    7.2537    1.9511    1.3642 H   0  0  0  0  0  0  0  0  0  0  0  0
    4.8357    0.2388    1.7158 H   0  0  0  0  0  0  0  0  0  0  0  0
    4.5443    1.3844    0.3066 H   0  0  0  0  0  0  0  0  0  0  0  0
  2  3  1  0
  3  4  1  0
  4  5  1  0
  5  6  2  0
  5  7  1  0
  7  8  1  0
  8  9  1  0
  9 10  1  0
 10 11  1  0
 11 12  1  0
 12 13  1  0
 13 14  1  0
 14 15  1  0
 15 16  1  0
 10 17  1  0
 17 18  1  0
  3 19  1  0
 19 20  2  0
 19 21  1  0
 21 22  1  0
 22 23  1  0
 23 24  2  0
 24 25  1  0
 25 26  2  0
 26 27  1  0
 27 28  2  0
 28 29  1  0
 18  7  1  0
 29 21  1  0
 16 11  1  0
 28 23  1  0
  1 30  1  0
  2 31  1  0
  2 32  1  0
  3 33  1  1
  4 34  1  0
  4 35  1  0
  8 36  1  0
  8 37  1  0
  9 38  1  0
  9 39  1  0
 10 40  1  0
 12 41  1  0
 12 42  1  0
 13 43  1  0
 13 44  1  0
 14 45  1  0
 14 46  1  0
 15 47  1  0
 15 48  1  0
 16 49  1  0
 16 50  1  0
 17 51  1  0
 17 52  1  0
 18 53  1  0
 18 54  1  0
 22 55  1  0
 22 56  1  0
 24 57  1  0
 25 58  1  0
 26 59  1  0
 27 60  1  0
 29 61  1  0
 29 62  1  0
M  END
$$$$
