
     RDKit          3D

 82 83  0  0  0  0  0  0  0  0999 V2000
    7.2352   -1.4426   -3.1419 C   0  0  0  0  0  0  0  0  0  0  0  0
    7.1071   -2.7808   -3.8843 C   0  0  0  0  0  0  0  0  0  0  0  0
    8.3350   -3.6528   -3.5686 C   0  0  0  0  0  0  0  0  0  0  0  0
    5.7846   -3.5213   -3.5381 C   0  0  1  0  0  0  0  0  0  0  0  0
    4.6492   -2.6800   -3.7725 O   0  0  0  0  0  0  0  0  0  0  0  0
    4.0033   -1.8458   -2.8418 C   0  0  0  0  0  0  0  0  0  0  0  0
    4.3255   -1.8156   -1.4700 C   0  0  0  0  0  0  0  0  0  0  0  0
    3.6504   -0.9491   -0.6059 C   0  0  0  0  0  0  0  0  0  0  0  0
    2.6515   -0.0942   -1.0929 C   0  0  0  0  0  0  0  0  0  0  0  0
    1.9107    0.8148   -0.1511 C   0  0  0  0  0  0  0  0  0  0  0  0
    0.8222    0.0854    0.4939 N   0  0  0  0  0  0  0  0  0  0  0  0
   -0.4535   -0.1075   -0.1328 C   0  0  0  0  0  0  0  0  0  0  0  0
   -0.7013    0.4268   -1.2491 O   0  0  0  0  0  0  0  0  0  0  0  0
   -1.4823   -0.9964    0.5129 C   0  0  2  0  0  0  0  0  0  0  0  0
   -1.5385   -2.3507   -0.1967 C   0  0  0  0  0  0  0  0  0  0  0  0
   -2.7284   -2.2638   -1.1450 C   0  0  0  0  0  0  0  0  0  0  0  0
   -3.6464   -1.2047   -0.5480 C   0  0  0  0  0  0  0  0  0  0  0  0
   -2.8200   -0.4301    0.3650 N   0  0  0  0  0  0  0  0  0  0  0  0
   -3.3677    0.6500    1.1500 C   0  0  0  0  0  0  0  0  0  0  0  0
   -4.6005    0.8956    1.0718 O   0  0  0  0  0  0  0  0  0  0  0  0
   -2.5305    1.4710    2.1056 C   0  0  0  0  0  0  0  0  0  0  0  0
   -2.3264    2.9398    1.6567 C   0  0  0  0  0  0  0  0  0  0  0  0
   -1.6828    2.9797    0.3407 N   0  0  0  0  0  0  0  0  0  0  0  0
   -3.6300    3.7753    1.6352 C   0  0  0  0  0  0  0  0  0  0  0  0
   -4.3554    3.7790    2.9620 C   0  0  0  0  0  0  0  0  0  0  0  0
   -3.7349    4.3016    4.1085 C   0  0  0  0  0  0  0  0  0  0  0  0
   -4.3961    4.2831    5.3372 C   0  0  0  0  0  0  0  0  0  0  0  0
   -5.6888    3.7652    5.4311 C   0  0  0  0  0  0  0  0  0  0  0  0
   -6.3371    3.2626    4.2973 C   0  0  0  0  0  0  0  0  0  0  0  0
   -7.6435    2.7709    4.4470 O   0  0  0  0  0  0  0  0  0  0  0  0
   -8.4697    2.2893    3.3892 C   0  0  0  0  0  0  0  0  0  0  0  0
   -8.6555    3.2790    2.4409 F   0  0  0  0  0  0  0  0  0  0  0  0
   -9.6994    1.9356    3.9084 F   0  0  0  0  0  0  0  0  0  0  0  0
   -7.8949    1.1758    2.8030 F   0  0  0  0  0  0  0  0  0  0  0  0
   -5.6626    3.2712    3.0598 C   0  0  0  0  0  0  0  0  0  0  0  0
    2.3141   -0.1395   -2.4522 C   0  0  0  0  0  0  0  0  0  0  0  0
    2.9879   -1.0063   -3.3166 C   0  0  0  0  0  0  0  0  0  0  0  0
    5.6257   -4.7357   -4.4076 C   0  0  0  0  0  0  0  0  0  0  0  0
    5.6922   -5.8888   -3.9033 O   0  0  0  0  0  0  0  0  0  0  0  0
    5.4118   -4.5877   -5.7760 O   0  0  0  0  0  0  0  0  0  0  0  0
    1.2677   -0.2536   -1.1297 O   0  0  0  0  0  0  0  0  0  0  0  0
    0.4726   -0.2727   -0.1530 C   0  0  0  0  0  0  0  0  0  0  0  0
    0.6751   -1.1731    0.8888 O   0  0  0  0  0  0  0  0  0  0  0  0
   -0.6958    0.6579   -0.1270 C   0  0  0  0  0  0  0  0  0  0  0  0
   -1.5897    0.3053   -1.1201 F   0  0  0  0  0  0  0  0  0  0  0  0
   -0.2626    1.9524   -0.3425 F   0  0  0  0  0  0  0  0  0  0  0  0
   -1.3322    0.5919    1.0997 F   0  0  0  0  0  0  0  0  0  0  0  0
    6.4227   -0.7490   -3.4414 H   0  0  0  0  0  0  0  0  0  0  0  0
    7.2062   -1.5959   -2.0429 H   0  0  0  0  0  0  0  0  0  0  0  0
    8.1959   -0.9508   -3.4034 H   0  0  0  0  0  0  0  0  0  0  0  0
    7.1163   -2.5558   -4.9744 H   0  0  0  0  0  0  0  0  0  0  0  0
    8.3505   -3.9308   -2.4928 H   0  0  0  0  0  0  0  0  0  0  0  0
    8.3269   -4.5786   -4.1806 H   0  0  0  0  0  0  0  0  0  0  0  0
    9.2709   -3.1027   -3.8063 H   0  0  0  0  0  0  0  0  0  0  0  0
    5.8097   -3.8698   -2.4857 H   0  0  0  0  0  0  0  0  0  0  0  0
    5.0960   -2.4431   -1.0502 H   0  0  0  0  0  0  0  0  0  0  0  0
    3.9121   -0.9394    0.4448 H   0  0  0  0  0  0  0  0  0  0  0  0
    2.6078    1.1899    0.6296 H   0  0  0  0  0  0  0  0  0  0  0  0
    1.5168    1.7089   -0.6821 H   0  0  0  0  0  0  0  0  0  0  0  0
    1.0106   -0.3712    1.4151 H   0  0  0  0  0  0  0  0  0  0  0  0
   -1.2490   -1.1586    1.5874 H   0  0  0  0  0  0  0  0  0  0  0  0
   -1.7297   -3.1495    0.5535 H   0  0  0  0  0  0  0  0  0  0  0  0
   -0.6009   -2.5998   -0.7429 H   0  0  0  0  0  0  0  0  0  0  0  0
   -2.3777   -1.9307   -2.1464 H   0  0  0  0  0  0  0  0  0  0  0  0
   -3.2427   -3.2447   -1.2431 H   0  0  0  0  0  0  0  0  0  0  0  0
   -4.0597   -0.5480   -1.3433 H   0  0  0  0  0  0  0  0  0  0  0  0
   -4.4781   -1.6868    0.0121 H   0  0  0  0  0  0  0  0  0  0  0  0
   -1.5317    1.0140    2.2490 H   0  0  0  0  0  0  0  0  0  0  0  0
   -3.0111    1.4465    3.1069 H   0  0  0  0  0  0  0  0  0  0  0  0
   -1.6377    3.4147    2.3927 H   0  0  0  0  0  0  0  0  0  0  0  0
   -1.5728    3.9796    0.0503 H   0  0  0  0  0  0  0  0  0  0  0  0
   -0.7075    2.6193    0.4541 H   0  0  0  0  0  0  0  0  0  0  0  0
   -3.3787    4.8284    1.3844 H   0  0  0  0  0  0  0  0  0  0  0  0
   -4.2932    3.4159    0.8184 H   0  0  0  0  0  0  0  0  0  0  0  0
   -2.7371    4.7177    4.0538 H   0  0  0  0  0  0  0  0  0  0  0  0
   -3.9065    4.6749    6.2187 H   0  0  0  0  0  0  0  0  0  0  0  0
   -6.1916    3.7589    6.3890 H   0  0  0  0  0  0  0  0  0  0  0  0
   -6.1475    2.8926    2.1715 H   0  0  0  0  0  0  0  0  0  0  0  0
    1.5358    0.5017   -2.8453 H   0  0  0  0  0  0  0  0  0  0  0  0
    2.7260   -1.0203   -4.3673 H   0  0  0  0  0  0  0  0  0  0  0  0
    5.2884   -5.3959   -6.3717 H   0  0  0  0  0  0  0  0  0  0  0  0
    1.4649   -1.8081    0.8838 H   0  0  0  0  0  0  0  0  0  0  0  0
  1  2  1  0
  2  3  1  0
  2  4  1  0
  4  5  1  0
  5  6  1  0
  6  7  2  0
  7  8  1  0
  8  9  2  0
  9 10  1  0
 10 11  1  0
 11 12  1  0
 12 13  2  0
 12 14  1  0
 14 15  1  0
 15 16  1  0
 16 17  1  0
 17 18  1  0
 18 19  1  0
 19 20  2  0
 19 21  1  0
 21 22  1  0
 22 23  1  0
 22 24  1  0
 24 25  1  0
 25 26  2  0
 26 27  1  0
 27 28  2  0
 28 29  1  0
 29 30  1  0
 30 31  1  0
 31 32  1  0
 31 33  1  0
 31 34  1  0
 29 35  2  0
  9 36  1  0
 36 37  2  0
  4 38  1  0
 38 39  2  0
 38 40  1  0
 41 42  2  0
 42 43  1  0
 42 44  1  0
 44 45  1  0
 44 46  1  0
 44 47  1  0
 37  6  1  0
 18 14  1  0
 35 25  1  0
  1 48  1  0
  1 49  1  0
  1 50  1  0
  2 51  1  0
  3 52  1  0
  3 53  1  0
  3 54  1  0
  4 55  1  1
  7 56  1  0
  8 57  1  0
 10 58  1  0
 10 59  1  0
 11 60  1  0
 14 61  1  1
 15 62  1  0
 15 63  1  0
 16 64  1  0
 16 65  1  0
 17 66  1  0
 17 67  1  0
 21 68  1  0
 21 69  1  0
 22 70  1  0
 23 71  1  0
 23 72  1  0
 24 73  1  0
 24 74  1  0
 26 75  1  0
 27 76  1  0
 28 77  1  0
 35 78  1  0
 36 79  1  0
 37 80  1  0
 40 81  1  0
 43 82  1  0
M  END
$$$$
