
     RDKit          3D

 59 60  0  0  0  0  0  0  0  0999 V2000
   -1.2685    3.7954    3.4641 C   0  0  0  0  0  0  0  0  0  0  0  0
   -1.1109    3.3861    2.0642 N   0  0  0  0  0  0  0  0  0  0  0  0
   -0.2736    4.1859    1.1619 C   0  0  0  0  0  0  0  0  0  0  0  0
   -1.7720    2.1812    1.6111 C   0  0  0  0  0  0  0  0  0  0  0  0
   -2.3955    1.4757    2.4501 O   0  0  0  0  0  0  0  0  0  0  0  0
   -1.6689    1.7064    0.1668 C   0  0  1  0  0  0  0  0  0  0  0  0
   -0.3623    0.9695   -0.0755 C   0  0  0  0  0  0  0  0  0  0  0  0
    0.0935   -0.0236    0.8116 C   0  0  0  0  0  0  0  0  0  0  0  0
    1.2539   -0.7482    0.5316 C   0  0  0  0  0  0  0  0  0  0  0  0
    1.9882   -0.4957   -0.6393 C   0  0  0  0  0  0  0  0  0  0  0  0
    3.2059   -1.2852   -0.9502 C   0  0  0  0  0  0  0  0  0  0  0  0
    4.3480   -0.6593   -1.4841 C   0  0  0  0  0  0  0  0  0  0  0  0
    5.4924   -1.4068   -1.7785 C   0  0  0  0  0  0  0  0  0  0  0  0
    5.5094   -2.7842   -1.5460 C   0  0  0  0  0  0  0  0  0  0  0  0
    6.6201   -3.5069   -1.8331 F   0  0  0  0  0  0  0  0  0  0  0  0
    4.3811   -3.4168   -1.0182 C   0  0  0  0  0  0  0  0  0  0  0  0
    3.2346   -2.6738   -0.7210 C   0  0  0  0  0  0  0  0  0  0  0  0
    1.5409    0.5041   -1.5199 C   0  0  0  0  0  0  0  0  0  0  0  0
    0.3751    1.2233   -1.2442 C   0  0  0  0  0  0  0  0  0  0  0  0
   -2.8891    0.8896   -0.3567 C   0  0  2  0  0  0  0  0  0  0  0  0
   -4.1298    1.6598   -0.2168 N   0  0  0  0  0  0  0  0  0  0  0  0
   -3.0203   -0.4928    0.2514 C   0  0  0  0  0  0  0  0  0  0  0  0
   -3.6353   -0.6614    1.3379 O   0  0  0  0  0  0  0  0  0  0  0  0
   -2.4267   -1.6207   -0.3928 N   0  0  0  0  0  0  0  0  0  0  0  0
   -1.7629   -1.9374   -1.6715 C   0  0  0  0  0  0  0  0  0  0  0  0
   -1.4986   -3.3723   -1.3584 C   0  0  0  0  0  0  0  0  0  0  0  0
   -2.2445   -4.2337   -2.1452 F   0  0  0  0  0  0  0  0  0  0  0  0
   -2.1786   -3.0374   -0.0722 C   0  0  0  0  0  0  0  0  0  0  0  0
    0.8820    0.7998   -1.2413 O   0  0  0  0  0  0  0  0  0  0  0  0
    0.4912    0.1039   -0.2661 C   0  0  0  0  0  0  0  0  0  0  0  0
    1.4185   -0.5849    0.5100 O   0  0  0  0  0  0  0  0  0  0  0  0
   -0.9591    0.0662    0.0921 C   0  0  0  0  0  0  0  0  0  0  0  0
   -1.2382   -1.0796    0.8143 F   0  0  0  0  0  0  0  0  0  0  0  0
   -1.7301    0.0733   -1.0563 F   0  0  0  0  0  0  0  0  0  0  0  0
   -1.2712    1.1736    0.8577 F   0  0  0  0  0  0  0  0  0  0  0  0
   -0.8629    3.0068    4.1326 H   0  0  0  0  0  0  0  0  0  0  0  0
   -2.3451    3.9481    3.6901 H   0  0  0  0  0  0  0  0  0  0  0  0
   -0.7345    4.7439    3.6820 H   0  0  0  0  0  0  0  0  0  0  0  0
    0.2321    5.0158    1.6981 H   0  0  0  0  0  0  0  0  0  0  0  0
    0.5163    3.5495    0.7123 H   0  0  0  0  0  0  0  0  0  0  0  0
   -0.8992    4.6329    0.3617 H   0  0  0  0  0  0  0  0  0  0  0  0
   -1.6655    2.6224   -0.4614 H   0  0  0  0  0  0  0  0  0  0  0  0
   -0.4599   -0.2556    1.7121 H   0  0  0  0  0  0  0  0  0  0  0  0
    1.5796   -1.5044    1.2348 H   0  0  0  0  0  0  0  0  0  0  0  0
    4.3615    0.4094   -1.6579 H   0  0  0  0  0  0  0  0  0  0  0  0
    6.3674   -0.9157   -2.1848 H   0  0  0  0  0  0  0  0  0  0  0  0
    4.3922   -4.4848   -0.8423 H   0  0  0  0  0  0  0  0  0  0  0  0
    2.3650   -3.1872   -0.3298 H   0  0  0  0  0  0  0  0  0  0  0  0
    2.0747    0.7075   -2.4397 H   0  0  0  0  0  0  0  0  0  0  0  0
    0.0383    1.9682   -1.9543 H   0  0  0  0  0  0  0  0  0  0  0  0
   -2.7240    0.7465   -1.4486 H   0  0  0  0  0  0  0  0  0  0  0  0
   -4.3975    1.7333    0.7909 H   0  0  0  0  0  0  0  0  0  0  0  0
   -4.8994    1.1443   -0.7034 H   0  0  0  0  0  0  0  0  0  0  0  0
   -0.8256   -1.3550   -1.7945 H   0  0  0  0  0  0  0  0  0  0  0  0
   -2.4618   -1.7980   -2.5261 H   0  0  0  0  0  0  0  0  0  0  0  0
   -0.4223   -3.6327   -1.2587 H   0  0  0  0  0  0  0  0  0  0  0  0
   -1.4986   -3.1304    0.8037 H   0  0  0  0  0  0  0  0  0  0  0  0
   -3.1362   -3.5856    0.0724 H   0  0  0  0  0  0  0  0  0  0  0  0
    2.4068   -0.5523    0.2897 H   0  0  0  0  0  0  0  0  0  0  0  0
  1  2  1  0
  2  3  1  0
  2  4  1  0
  4  5  2  0
  4  6  1  0
  6  7  1  0
  7  8  2  0
  8  9  1  0
  9 10  2  0
 10 11  1  0
 11 12  2  0
 12 13  1  0
 13 14  2  0
 14 15  1  0
 14 16  1  0
 16 17  2  0
 10 18  1  0
 18 19  2  0
  6 20  1  0
 20 21  1  0
 20 22  1  0
 22 23  2  0
 22 24  1  0
 24 25  1  0
 25 26  1  0
 26 27  1  0
 26 28  1  0
 29 30  2  0
 30 31  1  0
 30 32  1  0
 32 33  1  0
 32 34  1  0
 32 35  1  0
 19  7  1  0
 28 24  1  0
 17 11  1  0
  1 36  1  0
  1 37  1  0
  1 38  1  0
  3 39  1  0
  3 40  1  0
  3 41  1  0
  6 42  1  6
  8 43  1  0
  9 44  1  0
 12 45  1  0
 13 46  1  0
 16 47  1  0
 17 48  1  0
 18 49  1  0
 19 50  1  0
 20 51  1  6
 21 52  1  0
 21 53  1  0
 25 54  1  0
 25 55  1  0
 26 56  1  0
 28 57  1  0
 28 58  1  0
 31 59  1  0
M  END
$$$$
