
     RDKit          3D

 33 34  0  0  0  0  0  0  0  0999 V2000
    0.5086    0.0205    1.0741 O   0  0  0  0  0  0  0  0  0  0  0  0
    1.3379    0.3506    0.1824 C   0  0  0  0  0  0  0  0  0  0  0  0
    0.8784    1.0400   -0.9925 N   0  0  0  0  0  0  0  0  0  0  0  0
   -0.5011    1.4999   -1.1351 C   0  0  0  0  0  0  0  0  0  0  0  0
   -1.4170    0.3297   -1.3699 C   0  0  0  0  0  0  0  0  0  0  0  0
   -1.2100   -0.4032   -2.3751 O   0  0  0  0  0  0  0  0  0  0  0  0
   -2.5102    0.0247   -0.4838 N   0  0  0  0  0  0  0  0  0  0  0  0
   -2.9453    0.8681    0.6172 C   0  0  0  0  0  0  0  0  0  0  0  0
   -4.2245    0.2307    1.1436 C   0  0  0  0  0  0  0  0  0  0  0  0
   -4.2451   -1.1891    0.5845 C   0  0  0  0  0  0  0  0  0  0  0  0
   -3.3184   -1.1742   -0.6234 C   0  0  0  0  0  0  0  0  0  0  0  0
    2.7683    0.0017    0.3584 C   0  0  0  0  0  0  0  0  0  0  0  0
    3.7835    0.7421   -0.2774 C   0  0  0  0  0  0  0  0  0  0  0  0
    5.1277    0.4018   -0.0949 C   0  0  0  0  0  0  0  0  0  0  0  0
    5.4742   -0.6736    0.7258 C   0  0  0  0  0  0  0  0  0  0  0  0
    4.4774   -1.4080    1.3711 C   0  0  0  0  0  0  0  0  0  0  0  0
    3.1319   -1.0718    1.1933 C   0  0  0  0  0  0  0  0  0  0  0  0
    1.5245    1.1849   -1.7998 H   0  0  0  0  0  0  0  0  0  0  0  0
   -0.7851    2.0907   -0.2411 H   0  0  0  0  0  0  0  0  0  0  0  0
   -0.5719    2.1786   -2.0120 H   0  0  0  0  0  0  0  0  0  0  0  0
   -2.1663    0.8821    1.4097 H   0  0  0  0  0  0  0  0  0  0  0  0
   -3.1484    1.9010    0.2599 H   0  0  0  0  0  0  0  0  0  0  0  0
   -4.2483    0.2279    2.2550 H   0  0  0  0  0  0  0  0  0  0  0  0
   -5.1058    0.7915    0.7614 H   0  0  0  0  0  0  0  0  0  0  0  0
   -3.8496   -1.8935    1.3492 H   0  0  0  0  0  0  0  0  0  0  0  0
   -5.2749   -1.4979    0.3017 H   0  0  0  0  0  0  0  0  0  0  0  0
   -3.9060   -1.1201   -1.5655 H   0  0  0  0  0  0  0  0  0  0  0  0
   -2.6727   -2.0792   -0.6309 H   0  0  0  0  0  0  0  0  0  0  0  0
    3.5484    1.5985   -0.8946 H   0  0  0  0  0  0  0  0  0  0  0  0
    5.9021    0.9773   -0.5854 H   0  0  0  0  0  0  0  0  0  0  0  0
    6.5154   -0.9343    0.8659 H   0  0  0  0  0  0  0  0  0  0  0  0
    4.7470   -2.2392    2.0100 H   0  0  0  0  0  0  0  0  0  0  0  0
    2.3752   -1.6582    1.6998 H   0  0  0  0  0  0  0  0  0  0  0  0
  1  2  2  0
  2  3  1  0
  3  4  1  0
  4  5  1  0
  5  6  2  0
  5  7  1  0
  7  8  1  0
  8  9  1  0
  9 10  1  0
 10 11  1  0
  2 12  1  0
 12 13  2  0
 13 14  1  0
 14 15  2  0
 15 16  1  0
 16 17  2  0
 11  7  1  0
 17 12  1  0
  3 18  1  0
  4 19  1  0
  4 20  1  0
  8 21  1  0
  8 22  1  0
  9 23  1  0
  9 24  1  0
 10 25  1  0
 10 26  1  0
 11 27  1  0
 11 28  1  0
 13 29  1  0
 14 30  1  0
 15 31  1  0
 16 32  1  0
 17 33  1  0
M  END
$$$$
