
     RDKit          3D

 35 36  0  0  0  0  0  0  0  0999 V2000
   -2.7395   -0.7447   -3.9286 N   0  0  0  0  0  0  0  0  0  0  0  0
   -2.9767   -0.6937   -2.7971 C   0  0  0  0  0  0  0  0  0  0  0  0
   -3.2766   -0.6291   -1.3574 C   0  0  2  0  0  0  0  0  0  0  0  0
   -4.2425    0.5124   -1.0403 C   0  0  0  0  0  0  0  0  0  0  0  0
   -3.7351    1.1141    0.2664 C   0  0  2  0  0  0  0  0  0  0  0  0
   -3.9179    2.4868    0.2879 F   0  0  0  0  0  0  0  0  0  0  0  0
   -2.2553    0.7557    0.3402 C   0  0  0  0  0  0  0  0  0  0  0  0
   -2.0693   -0.3429   -0.5952 N   0  0  0  0  0  0  0  0  0  0  0  0
   -0.9492   -1.2482   -0.5554 C   0  0  0  0  0  0  0  0  0  0  0  0
   -1.1591   -2.4873   -0.6595 O   0  0  0  0  0  0  0  0  0  0  0  0
    0.4840   -0.7639   -0.4604 C   0  0  1  0  0  0  0  0  0  0  0  0
    0.7732    0.2459   -1.4822 N   0  0  0  0  0  0  0  0  0  0  0  0
    0.8333   -0.2410    0.9454 C   0  0  0  0  0  0  0  0  0  0  0  0
    2.3243   -0.1009    1.1178 C   0  0  0  0  0  0  0  0  0  0  0  0
    3.0959   -1.2016    1.5269 C   0  0  0  0  0  0  0  0  0  0  0  0
    4.4829   -1.0801    1.6577 C   0  0  0  0  0  0  0  0  0  0  0  0
    5.1098    0.1366    1.3737 C   0  0  0  0  0  0  0  0  0  0  0  0
    6.4548    0.2521    1.4997 F   0  0  0  0  0  0  0  0  0  0  0  0
    4.3502    1.2330    0.9549 C   0  0  0  0  0  0  0  0  0  0  0  0
    2.9631    1.1155    0.8229 C   0  0  0  0  0  0  0  0  0  0  0  0
   -3.7095   -1.5975   -1.0236 H   0  0  0  0  0  0  0  0  0  0  0  0
   -5.2845    0.1401   -0.9324 H   0  0  0  0  0  0  0  0  0  0  0  0
   -4.2194    1.2939   -1.8340 H   0  0  0  0  0  0  0  0  0  0  0  0
   -4.2768    0.6549    1.1226 H   0  0  0  0  0  0  0  0  0  0  0  0
   -1.6302    1.6214    0.0373 H   0  0  0  0  0  0  0  0  0  0  0  0
   -1.9978    0.4364    1.3732 H   0  0  0  0  0  0  0  0  0  0  0  0
    1.1414   -1.6408   -0.6617 H   0  0  0  0  0  0  0  0  0  0  0  0
    0.1485    1.0731   -1.3543 H   0  0  0  0  0  0  0  0  0  0  0  0
    0.5652   -0.1601   -2.4238 H   0  0  0  0  0  0  0  0  0  0  0  0
    0.3537    0.7425    1.1283 H   0  0  0  0  0  0  0  0  0  0  0  0
    0.4412   -0.9437    1.7136 H   0  0  0  0  0  0  0  0  0  0  0  0
    2.6235   -2.1521    1.7418 H   0  0  0  0  0  0  0  0  0  0  0  0
    5.0711   -1.9310    1.9765 H   0  0  0  0  0  0  0  0  0  0  0  0
    4.8357    2.1737    0.7293 H   0  0  0  0  0  0  0  0  0  0  0  0
    2.3877    1.9705    0.4898 H   0  0  0  0  0  0  0  0  0  0  0  0
  1  2  3  0
  2  3  1  0
  3  4  1  0
  4  5  1  0
  5  6  1  0
  5  7  1  0
  7  8  1  0
  8  9  1  0
  9 10  2  0
  9 11  1  0
 11 12  1  0
 11 13  1  0
 13 14  1  0
 14 15  2  0
 15 16  1  0
 16 17  2  0
 17 18  1  0
 17 19  1  0
 19 20  2  0
  8  3  1  0
 20 14  1  0
  3 21  1  1
  4 22  1  0
  4 23  1  0
  5 24  1  1
  7 25  1  0
  7 26  1  0
 11 27  1  6
 12 28  1  0
 12 29  1  0
 13 30  1  0
 13 31  1  0
 15 32  1  0
 16 33  1  0
 19 34  1  0
 20 35  1  0
M  END
$$$$
