
     RDKit          3D

 25 26  0  0  0  0  0  0  0  0999 V2000
   -2.0153   -3.0558   -0.2765 N   0  0  0  0  0  0  0  0  0  0  0  0
   -2.4916   -1.7395   -0.3571 N   0  0  0  0  0  0  0  0  0  0  0  0
   -1.5922   -0.6335   -0.2678 C   0  0  0  0  0  0  0  0  0  0  0  0
   -2.0689    0.6344   -0.3476 N   0  0  0  0  0  0  0  0  0  0  0  0
   -1.2190    1.6903   -0.2634 C   0  0  0  0  0  0  0  0  0  0  0  0
   -1.7151    3.0313   -0.3469 N   0  0  0  0  0  0  0  0  0  0  0  0
   -3.0815    3.3065   -0.5168 N   0  0  0  0  0  0  0  0  0  0  0  0
    0.1106    1.4718   -0.0989 N   0  0  0  0  0  0  0  0  0  0  0  0
    0.5996    0.2058   -0.0176 C   0  0  0  0  0  0  0  0  0  0  0  0
    2.0135   -0.0215    0.1572 N   0  0  0  0  0  0  0  0  0  0  0  0
    2.6328   -1.3014    0.2545 C   0  0  0  0  0  0  0  0  0  0  0  0
    1.9768   -2.3755    0.1941 O   0  0  0  0  0  0  0  0  0  0  0  0
    4.1142   -1.3050    0.4336 C   0  0  0  0  0  0  0  0  0  0  0  0
    4.6818    0.4368    0.4717 S   0  0  0  0  0  0  0  0  0  0  0  0
    3.0006    0.9988    0.2586 C   0  0  0  0  0  0  0  0  0  0  0  0
    2.7189    2.2250    0.2031 O   0  0  0  0  0  0  0  0  0  0  0  0
   -0.2606   -0.8432   -0.1032 N   0  0  0  0  0  0  0  0  0  0  0  0
   -2.5156   -3.5153    0.5177 H   0  0  0  0  0  0  0  0  0  0  0  0
   -2.3140   -3.5445   -1.1505 H   0  0  0  0  0  0  0  0  0  0  0  0
   -3.5148   -1.5653   -0.4838 H   0  0  0  0  0  0  0  0  0  0  0  0
   -1.0456    3.8299   -0.2800 H   0  0  0  0  0  0  0  0  0  0  0  0
   -3.3937    2.8389   -1.3983 H   0  0  0  0  0  0  0  0  0  0  0  0
   -3.5966    2.8684    0.2806 H   0  0  0  0  0  0  0  0  0  0  0  0
    4.5968   -1.8346   -0.4141 H   0  0  0  0  0  0  0  0  0  0  0  0
    4.3788   -1.8030    1.3896 H   0  0  0  0  0  0  0  0  0  0  0  0
  1  2  1  0
  2  3  1  0
  3  4  2  0
  4  5  1  0
  5  6  1  0
  6  7  1  0
  5  8  2  0
  8  9  1  0
  9 10  1  0
 10 11  1  0
 11 12  2  0
 11 13  1  0
 13 14  1  0
 14 15  1  0
 15 16  2  0
  9 17  2  0
 17  3  1  0
 15 10  1  0
  1 18  1  0
  1 19  1  0
  2 20  1  0
  6 21  1  0
  7 22  1  0
  7 23  1  0
 13 24  1  0
 13 25  1  0
M  END
$$$$
