
     RDKit          3D

 63 64  0  0  0  0  0  0  0  0999 V2000
   -2.3484   -2.4521   -1.7028 N   0  0  0  0  0  0  0  0  0  0  0  0
   -1.1250   -1.9778   -1.0476 C   0  0  2  0  0  0  0  0  0  0  0  0
   -1.3261   -1.6232    0.4209 C   0  0  0  0  0  0  0  0  0  0  0  0
   -0.3133   -1.7006    1.1698 O   0  0  0  0  0  0  0  0  0  0  0  0
   -2.5736   -1.1800    1.0058 N   0  0  0  0  0  0  0  0  0  0  0  0
   -2.6104   -0.5810    2.3313 C   0  0  0  0  0  0  0  0  0  0  0  0
   -4.0436   -0.1201    2.5460 C   0  0  0  0  0  0  0  0  0  0  0  0
   -4.8777   -0.8743    1.5168 C   0  0  2  0  0  0  0  0  0  0  0  0
   -5.4452   -1.9928    2.1060 F   0  0  0  0  0  0  0  0  0  0  0  0
   -3.9027   -1.3009    0.4248 C   0  0  0  0  0  0  0  0  0  0  0  0
   -0.3882   -0.8877   -1.8912 C   0  0  1  0  0  0  0  0  0  0  0  0
   -1.2071    0.3437   -2.2451 C   0  0  0  0  0  0  0  0  0  0  0  0
   -1.2290    0.7250   -3.4478 O   0  0  0  0  0  0  0  0  0  0  0  0
   -1.9350    1.0911   -1.2598 N   0  0  0  0  0  0  0  0  0  0  0  0
   -2.8309    2.1819   -1.6447 C   0  0  0  0  0  0  0  0  0  0  0  0
   -3.5538    2.7621   -0.4301 C   0  0  0  0  0  0  0  0  0  0  0  0
   -2.6247    3.3007    0.4692 O   0  0  0  0  0  0  0  0  0  0  0  0
    0.9915   -0.5559   -1.3343 C   0  0  0  0  0  0  0  0  0  0  0  0
    1.2207    0.5372   -0.4758 C   0  0  0  0  0  0  0  0  0  0  0  0
    2.4942    0.7790    0.0461 C   0  0  0  0  0  0  0  0  0  0  0  0
    3.5690   -0.0700   -0.2656 C   0  0  0  0  0  0  0  0  0  0  0  0
    4.9212    0.1870    0.2927 C   0  0  0  0  0  0  0  0  0  0  0  0
    5.4231    1.4997    0.3767 C   0  0  0  0  0  0  0  0  0  0  0  0
    6.6963    1.7392    0.9026 C   0  0  0  0  0  0  0  0  0  0  0  0
    7.4816    0.6744    1.3508 C   0  0  0  0  0  0  0  0  0  0  0  0
    8.7157    0.9093    1.8608 F   0  0  0  0  0  0  0  0  0  0  0  0
    6.9946   -0.6326    1.2733 C   0  0  0  0  0  0  0  0  0  0  0  0
    5.7224   -0.8777    0.7474 C   0  0  0  0  0  0  0  0  0  0  0  0
    3.3408   -1.1689   -1.1100 C   0  0  0  0  0  0  0  0  0  0  0  0
    2.0682   -1.4102   -1.6329 C   0  0  0  0  0  0  0  0  0  0  0  0
    0.7415    0.0124   -1.5519 O   0  0  0  0  0  0  0  0  0  0  0  0
    0.4681    0.0141   -0.3218 C   0  0  0  0  0  0  0  0  0  0  0  0
    1.4940   -0.0487    0.6165 O   0  0  0  0  0  0  0  0  0  0  0  0
   -0.9571    0.0234    0.1275 C   0  0  0  0  0  0  0  0  0  0  0  0
   -1.4556   -1.2652    0.0976 F   0  0  0  0  0  0  0  0  0  0  0  0
   -1.7117    0.8244   -0.7104 F   0  0  0  0  0  0  0  0  0  0  0  0
   -1.0430    0.5147    1.4174 F   0  0  0  0  0  0  0  0  0  0  0  0
   -2.8680   -1.6535   -2.1297 H   0  0  0  0  0  0  0  0  0  0  0  0
   -2.0794   -3.0767   -2.4979 H   0  0  0  0  0  0  0  0  0  0  0  0
   -0.4336   -2.8530   -1.0245 H   0  0  0  0  0  0  0  0  0  0  0  0
   -1.9125    0.2830    2.3860 H   0  0  0  0  0  0  0  0  0  0  0  0
   -2.3298   -1.3415    3.0922 H   0  0  0  0  0  0  0  0  0  0  0  0
   -4.3847   -0.3261    3.5838 H   0  0  0  0  0  0  0  0  0  0  0  0
   -4.1156    0.9728    2.3540 H   0  0  0  0  0  0  0  0  0  0  0  0
   -5.6857   -0.2301    1.1065 H   0  0  0  0  0  0  0  0  0  0  0  0
   -4.1058   -2.3508    0.1240 H   0  0  0  0  0  0  0  0  0  0  0  0
   -3.9992   -0.6166   -0.4434 H   0  0  0  0  0  0  0  0  0  0  0  0
   -0.2023   -1.3845   -2.8719 H   0  0  0  0  0  0  0  0  0  0  0  0
   -1.8107    0.8717   -0.2503 H   0  0  0  0  0  0  0  0  0  0  0  0
   -3.5897    1.7973   -2.3601 H   0  0  0  0  0  0  0  0  0  0  0  0
   -2.2459    2.9839   -2.1450 H   0  0  0  0  0  0  0  0  0  0  0  0
   -4.2492    3.5609   -0.7706 H   0  0  0  0  0  0  0  0  0  0  0  0
   -4.1470    1.9612    0.0641 H   0  0  0  0  0  0  0  0  0  0  0  0
   -3.1500    3.6185    1.2489 H   0  0  0  0  0  0  0  0  0  0  0  0
    0.4258    1.2093   -0.1963 H   0  0  0  0  0  0  0  0  0  0  0  0
    2.6330    1.6205    0.7132 H   0  0  0  0  0  0  0  0  0  0  0  0
    4.8387    2.3385    0.0199 H   0  0  0  0  0  0  0  0  0  0  0  0
    7.0747    2.7518    0.9590 H   0  0  0  0  0  0  0  0  0  0  0  0
    7.6011   -1.4577    1.6241 H   0  0  0  0  0  0  0  0  0  0  0  0
    5.3586   -1.8969    0.7131 H   0  0  0  0  0  0  0  0  0  0  0  0
    4.1503   -1.8360   -1.3782 H   0  0  0  0  0  0  0  0  0  0  0  0
    1.9223   -2.2706   -2.2745 H   0  0  0  0  0  0  0  0  0  0  0  0
    2.4638   -0.0749    0.3250 H   0  0  0  0  0  0  0  0  0  0  0  0
  1  2  1  0
  2  3  1  0
  3  4  2  0
  3  5  1  0
  5  6  1  0
  6  7  1  0
  7  8  1  0
  8  9  1  0
  8 10  1  0
  2 11  1  0
 11 12  1  0
 12 13  2  0
 12 14  1  0
 14 15  1  0
 15 16  1  0
 16 17  1  0
 11 18  1  0
 18 19  2  0
 19 20  1  0
 20 21  2  0
 21 22  1  0
 22 23  2  0
 23 24  1  0
 24 25  2  0
 25 26  1  0
 25 27  1  0
 27 28  2  0
 21 29  1  0
 29 30  2  0
 31 32  2  0
 32 33  1  0
 32 34  1  0
 34 35  1  0
 34 36  1  0
 34 37  1  0
 10  5  1  0
 30 18  1  0
 28 22  1  0
  1 38  1  0
  1 39  1  0
  2 40  1  1
  6 41  1  0
  6 42  1  0
  7 43  1  0
  7 44  1  0
  8 45  1  6
 10 46  1  0
 10 47  1  0
 11 48  1  6
 14 49  1  0
 15 50  1  0
 15 51  1  0
 16 52  1  0
 16 53  1  0
 17 54  1  0
 19 55  1  0
 20 56  1  0
 23 57  1  0
 24 58  1  0
 27 59  1  0
 28 60  1  0
 29 61  1  0
 30 62  1  0
 33 63  1  0
M  END
$$$$
