
     RDKit          3D

 65 66  0  0  0  0  0  0  0  0999 V2000
   -1.9612   -4.7613   -2.4511 C   0  0  0  0  0  0  0  0  0  0  0  0
   -1.6842   -4.0064   -1.2241 N   0  0  0  0  0  0  0  0  0  0  0  0
   -0.8208   -4.5896   -0.1901 C   0  0  0  0  0  0  0  0  0  0  0  0
   -2.2542   -2.6847   -1.0748 C   0  0  0  0  0  0  0  0  0  0  0  0
   -2.8966   -2.1855   -2.0384 O   0  0  0  0  0  0  0  0  0  0  0  0
   -2.0318   -1.8541    0.1833 C   0  0  1  0  0  0  0  0  0  0  0  0
   -0.6840   -1.1538    0.1422 C   0  0  0  0  0  0  0  0  0  0  0  0
    0.1287   -1.1361    1.2884 C   0  0  0  0  0  0  0  0  0  0  0  0
    1.3242   -0.4130    1.3013 C   0  0  0  0  0  0  0  0  0  0  0  0
    1.7306    0.3149    0.1699 C   0  0  0  0  0  0  0  0  0  0  0  0
    2.9772    1.1200    0.1980 C   0  0  0  0  0  0  0  0  0  0  0  0
    3.0159    2.3971   -0.3776 C   0  0  0  0  0  0  0  0  0  0  0  0
    4.1907    3.1430   -0.3440 C   0  0  0  0  0  0  0  0  0  0  0  0
    5.3288    2.6137    0.2685 C   0  0  0  0  0  0  0  0  0  0  0  0
    6.3896    3.2967    0.2855 O   0  0  0  0  0  0  0  0  0  0  0  0
    5.2903    1.3687    0.8418 N   0  0  0  0  0  0  0  0  0  0  0  0
    6.4961    0.8112    1.4676 C   0  0  0  0  0  0  0  0  0  0  0  0
    4.1429    0.6230    0.8056 C   0  0  0  0  0  0  0  0  0  0  0  0
    0.9274    0.2846   -0.9821 C   0  0  0  0  0  0  0  0  0  0  0  0
   -0.2634   -0.4440   -0.9977 C   0  0  0  0  0  0  0  0  0  0  0  0
   -3.1838   -0.8638    0.5425 C   0  0  2  0  0  0  0  0  0  0  0  0
   -4.4559   -1.5824    0.6805 N   0  0  0  0  0  0  0  0  0  0  0  0
   -3.3120    0.3154   -0.4131 C   0  0  0  0  0  0  0  0  0  0  0  0
   -4.0340    0.2022   -1.4412 O   0  0  0  0  0  0  0  0  0  0  0  0
   -2.5965    1.5482   -0.1963 N   0  0  0  0  0  0  0  0  0  0  0  0
   -2.0248    1.9715    1.0726 C   0  0  0  0  0  0  0  0  0  0  0  0
   -1.2414    3.2399    0.7672 C   0  0  0  0  0  0  0  0  0  0  0  0
   -1.7689    3.7437   -0.5737 C   0  0  2  0  0  0  0  0  0  0  0  0
   -2.7191    4.7293   -0.3610 F   0  0  0  0  0  0  0  0  0  0  0  0
   -2.4151    2.5374   -1.2456 C   0  0  0  0  0  0  0  0  0  0  0  0
    0.7757   -0.0134   -1.5351 O   0  0  0  0  0  0  0  0  0  0  0  0
    0.4750   -0.0173   -0.3113 C   0  0  0  0  0  0  0  0  0  0  0  0
    1.4703   -0.1861    0.6466 O   0  0  0  0  0  0  0  0  0  0  0  0
   -0.9546    0.0994    0.1078 C   0  0  0  0  0  0  0  0  0  0  0  0
   -1.5566   -1.1424    0.0349 F   0  0  0  0  0  0  0  0  0  0  0  0
   -1.6212    0.9795   -0.7255 F   0  0  0  0  0  0  0  0  0  0  0  0
   -1.0298    0.5660    1.4074 F   0  0  0  0  0  0  0  0  0  0  0  0
   -1.5672   -4.2067   -3.3289 H   0  0  0  0  0  0  0  0  0  0  0  0
   -3.0573   -4.8978   -2.5667 H   0  0  0  0  0  0  0  0  0  0  0  0
   -1.4904   -5.7665   -2.4352 H   0  0  0  0  0  0  0  0  0  0  0  0
   -1.4074   -4.7722    0.7340 H   0  0  0  0  0  0  0  0  0  0  0  0
   -0.3898   -5.5600   -0.5138 H   0  0  0  0  0  0  0  0  0  0  0  0
    0.0252   -3.9058    0.0287 H   0  0  0  0  0  0  0  0  0  0  0  0
   -2.0172   -2.5717    1.0309 H   0  0  0  0  0  0  0  0  0  0  0  0
   -0.1767   -1.6602    2.1855 H   0  0  0  0  0  0  0  0  0  0  0  0
    1.9131   -0.3940    2.2097 H   0  0  0  0  0  0  0  0  0  0  0  0
    2.1345    2.8244   -0.8396 H   0  0  0  0  0  0  0  0  0  0  0  0
    4.2153    4.1294   -0.7911 H   0  0  0  0  0  0  0  0  0  0  0  0
    6.2783   -0.1301    2.0174 H   0  0  0  0  0  0  0  0  0  0  0  0
    6.9168    1.5360    2.1972 H   0  0  0  0  0  0  0  0  0  0  0  0
    7.2560    0.5948    0.6871 H   0  0  0  0  0  0  0  0  0  0  0  0
    4.1312   -0.3723    1.2349 H   0  0  0  0  0  0  0  0  0  0  0  0
    1.2207    0.8246   -1.8736 H   0  0  0  0  0  0  0  0  0  0  0  0
   -0.8703   -0.4285   -1.8933 H   0  0  0  0  0  0  0  0  0  0  0  0
   -2.9492   -0.4619    1.5511 H   0  0  0  0  0  0  0  0  0  0  0  0
   -5.1782   -0.9172    1.0420 H   0  0  0  0  0  0  0  0  0  0  0  0
   -4.7861   -1.9196   -0.2521 H   0  0  0  0  0  0  0  0  0  0  0  0
   -1.3426    1.2031    1.4857 H   0  0  0  0  0  0  0  0  0  0  0  0
   -2.8417    2.1803    1.7966 H   0  0  0  0  0  0  0  0  0  0  0  0
   -1.3659    3.9974    1.5712 H   0  0  0  0  0  0  0  0  0  0  0  0
   -0.1610    2.9928    0.6673 H   0  0  0  0  0  0  0  0  0  0  0  0
   -0.9468    4.1582   -1.1969 H   0  0  0  0  0  0  0  0  0  0  0  0
   -1.7447    2.1255   -2.0307 H   0  0  0  0  0  0  0  0  0  0  0  0
   -3.3935    2.8122   -1.6966 H   0  0  0  0  0  0  0  0  0  0  0  0
    2.4412   -0.2856    0.3752 H   0  0  0  0  0  0  0  0  0  0  0  0
  1  2  1  0
  2  3  1  0
  2  4  1  0
  4  5  2  0
  4  6  1  0
  6  7  1  0
  7  8  2  0
  8  9  1  0
  9 10  2  0
 10 11  1  0
 11 12  1  0
 12 13  2  0
 13 14  1  0
 14 15  2  0
 14 16  1  0
 16 17  1  0
 16 18  1  0
 10 19  1  0
 19 20  2  0
  6 21  1  0
 21 22  1  0
 21 23  1  0
 23 24  2  0
 23 25  1  0
 25 26  1  0
 26 27  1  0
 27 28  1  0
 28 29  1  0
 28 30  1  0
 31 32  2  0
 32 33  1  0
 32 34  1  0
 34 35  1  0
 34 36  1  0
 34 37  1  0
 20  7  1  0
 30 25  1  0
 18 11  2  0
  1 38  1  0
  1 39  1  0
  1 40  1  0
  3 41  1  0
  3 42  1  0
  3 43  1  0
  6 44  1  1
  8 45  1  0
  9 46  1  0
 12 47  1  0
 13 48  1  0
 17 49  1  0
 17 50  1  0
 17 51  1  0
 18 52  1  0
 19 53  1  0
 20 54  1  0
 21 55  1  1
 22 56  1  0
 22 57  1  0
 26 58  1  0
 26 59  1  0
 27 60  1  0
 27 61  1  0
 28 62  1  6
 30 63  1  0
 30 64  1  0
 33 65  1  0
M  END
$$$$
