
     RDKit          3D

 38 38  0  0  0  0  0  0  0  0999 V2000
   -4.0336   -2.0981    1.6061 N   0  0  0  0  0  0  0  0  0  0  0  0
   -3.1514   -1.3494    1.5840 C   0  0  0  0  0  0  0  0  0  0  0  0
   -2.0281   -0.3971    1.5554 C   0  0  2  0  0  0  0  0  0  0  0  0
   -2.5300    1.0490    1.5860 C   0  0  0  0  0  0  0  0  0  0  0  0
   -1.6452    1.7917    0.5853 C   0  0  2  0  0  0  0  0  0  0  0  0
   -2.3452    2.8925   -0.0789 N   0  0  0  0  0  0  0  0  0  0  0  0
   -3.3575    2.7096   -0.7576 N   0  0  0  0  0  0  0  0  0  0  0  0
   -4.3678    2.5270   -1.4350 N   0  0  0  0  0  0  0  0  0  0  0  0
   -1.1575    0.7290   -0.3966 C   0  0  0  0  0  0  0  0  0  0  0  0
   -1.2632   -0.5374    0.3180 N   0  0  0  0  0  0  0  0  0  0  0  0
   -0.5366   -1.7521    0.0027 C   0  0  0  0  0  0  0  0  0  0  0  0
   -0.5124   -2.6803    0.8570 O   0  0  0  0  0  0  0  0  0  0  0  0
    0.2152   -1.9935   -1.2946 C   0  0  1  0  0  0  0  0  0  0  0  0
   -0.2023   -1.0997   -2.3753 N   0  0  0  0  0  0  0  0  0  0  0  0
    1.7515   -1.9778   -1.0975 C   0  0  0  0  0  0  0  0  0  0  0  0
    2.3783   -0.5959   -0.8250 C   0  0  0  0  0  0  0  0  0  0  0  0
    2.3563   -0.2131    0.6655 C   0  0  0  0  0  0  0  0  0  0  0  0
    3.0584    1.1233    0.9335 C   0  0  0  0  0  0  0  0  0  0  0  0
    2.2619    2.2408    0.4322 N   0  0  0  0  0  0  0  0  0  0  0  0
   -1.3620   -0.5834    2.4262 H   0  0  0  0  0  0  0  0  0  0  0  0
   -3.5985    1.1103    1.2782 H   0  0  0  0  0  0  0  0  0  0  0  0
   -2.4308    1.4853    2.6040 H   0  0  0  0  0  0  0  0  0  0  0  0
   -0.7667    2.2051    1.1293 H   0  0  0  0  0  0  0  0  0  0  0  0
   -0.1106    0.9462   -0.6807 H   0  0  0  0  0  0  0  0  0  0  0  0
   -1.7978    0.6926   -1.3030 H   0  0  0  0  0  0  0  0  0  0  0  0
   -0.0408   -3.0325   -1.6080 H   0  0  0  0  0  0  0  0  0  0  0  0
   -1.2063   -1.3003   -2.5915 H   0  0  0  0  0  0  0  0  0  0  0  0
    0.3301   -1.3507   -3.2400 H   0  0  0  0  0  0  0  0  0  0  0  0
    2.0352   -2.6918   -0.2932 H   0  0  0  0  0  0  0  0  0  0  0  0
    2.2101   -2.3759   -2.0296 H   0  0  0  0  0  0  0  0  0  0  0  0
    3.4418   -0.6380   -1.1482 H   0  0  0  0  0  0  0  0  0  0  0  0
    1.8901    0.1787   -1.4487 H   0  0  0  0  0  0  0  0  0  0  0  0
    2.8809   -1.0027    1.2465 H   0  0  0  0  0  0  0  0  0  0  0  0
    1.3184   -0.1517    1.0466 H   0  0  0  0  0  0  0  0  0  0  0  0
    4.0726    1.1328    0.4747 H   0  0  0  0  0  0  0  0  0  0  0  0
    3.1833    1.2347    2.0332 H   0  0  0  0  0  0  0  0  0  0  0  0
    2.6542    3.1201    0.8401 H   0  0  0  0  0  0  0  0  0  0  0  0
    2.4057    2.3123   -0.6008 H   0  0  0  0  0  0  0  0  0  0  0  0
  1  2  3  0
  2  3  1  0
  3  4  1  0
  4  5  1  0
  5  6  1  0
  6  7  2  0
  7  8  2  0
  5  9  1  0
  9 10  1  0
 10 11  1  0
 11 12  2  0
 11 13  1  0
 13 14  1  0
 13 15  1  0
 15 16  1  0
 16 17  1  0
 17 18  1  0
 18 19  1  0
 10  3  1  0
  3 20  1  1
  4 21  1  0
  4 22  1  0
  5 23  1  1
  9 24  1  0
  9 25  1  0
 13 26  1  6
 14 27  1  0
 14 28  1  0
 15 29  1  0
 15 30  1  0
 16 31  1  0
 16 32  1  0
 17 33  1  0
 17 34  1  0
 18 35  1  0
 18 36  1  0
 19 37  1  0
 19 38  1  0
M  CHG  2   7   1   8  -1
M  END
$$$$
