
     RDKit          3D

 66 69  0  0  0  0  0  0  0  0999 V2000
   -7.5161    3.1209   -0.3972 C   0  0  0  0  0  0  0  0  0  0  0  0
   -6.0731    2.8696   -0.2564 N   0  0  0  0  0  0  0  0  0  0  0  0
   -5.3195    3.9393   -0.9346 C   0  0  0  0  0  0  0  0  0  0  0  0
   -5.7340    1.5479   -0.8218 C   0  0  0  0  0  0  0  0  0  0  0  0
   -4.3799    1.1088   -0.3573 C   0  0  0  0  0  0  0  0  0  0  0  0
   -4.0177    0.7824    0.9304 C   0  0  0  0  0  0  0  0  0  0  0  0
   -2.7073    0.4886    0.8831 N   0  0  0  0  0  0  0  0  0  0  0  0
   -1.8628    0.0893    2.0128 C   0  0  1  0  0  0  0  0  0  0  0  0
   -1.2167   -1.2801    1.7614 C   0  0  0  0  0  0  0  0  0  0  0  0
    0.2665   -1.0208    1.4811 C   0  0  1  0  0  0  0  0  0  0  0  0
    0.5847   -1.2308    0.0170 C   0  0  0  0  0  0  0  0  0  0  0  0
    0.4535   -0.2686   -0.7875 O   0  0  0  0  0  0  0  0  0  0  0  0
    0.9742   -2.5217   -0.4852 N   0  0  0  0  0  0  0  0  0  0  0  0
    1.1507   -2.7932   -1.9008 C   0  0  0  0  0  0  0  0  0  0  0  0
    1.3214   -4.3015   -2.0124 C   0  0  0  0  0  0  0  0  0  0  0  0
    1.6613   -4.7896   -0.6068 C   0  0  0  0  0  0  0  0  0  0  0  0
    1.1904   -3.6959    0.3431 C   0  0  0  0  0  0  0  0  0  0  0  0
    0.5069    0.3632    1.8738 N   0  0  0  0  0  0  0  0  0  0  0  0
    1.8134    0.9300    2.1000 C   0  0  0  0  0  0  0  0  0  0  0  0
    1.9052    2.1131    2.5290 O   0  0  0  0  0  0  0  0  0  0  0  0
    3.0634    0.0978    1.9263 C   0  0  0  0  0  0  0  0  0  0  0  0
    4.3637    0.9202    1.8523 C   0  0  0  0  0  0  0  0  0  0  0  0
    4.4580    1.8329    0.6166 C   0  0  0  0  0  0  0  0  0  0  0  0
    4.4007    1.0597   -0.6765 C   0  0  0  0  0  0  0  0  0  0  0  0
    5.4849    0.2589   -1.0731 C   0  0  0  0  0  0  0  0  0  0  0  0
    5.4210   -0.4747   -2.2619 C   0  0  0  0  0  0  0  0  0  0  0  0
    4.2779   -0.4119   -3.0632 C   0  0  0  0  0  0  0  0  0  0  0  0
    3.1964    0.3840   -2.6767 C   0  0  0  0  0  0  0  0  0  0  0  0
    3.2545    1.1159   -1.4870 C   0  0  0  0  0  0  0  0  0  0  0  0
   -0.7121    1.0780    2.2167 C   0  0  0  0  0  0  0  0  0  0  0  0
   -2.2901    0.6337   -0.3659 N   0  0  0  0  0  0  0  0  0  0  0  0
   -3.2913    1.0145   -1.1465 N   0  0  0  0  0  0  0  0  0  0  0  0
   -7.7777    4.1141    0.0278 H   0  0  0  0  0  0  0  0  0  0  0  0
   -8.0936    2.3621    0.1735 H   0  0  0  0  0  0  0  0  0  0  0  0
   -7.8293    3.0884   -1.4650 H   0  0  0  0  0  0  0  0  0  0  0  0
   -5.5668    4.9254   -0.4856 H   0  0  0  0  0  0  0  0  0  0  0  0
   -4.2274    3.7889   -0.7997 H   0  0  0  0  0  0  0  0  0  0  0  0
   -5.5496    3.9707   -2.0232 H   0  0  0  0  0  0  0  0  0  0  0  0
   -5.7693    1.5641   -1.9349 H   0  0  0  0  0  0  0  0  0  0  0  0
   -6.4620    0.7798   -0.4773 H   0  0  0  0  0  0  0  0  0  0  0  0
   -4.6417    0.7682    1.8148 H   0  0  0  0  0  0  0  0  0  0  0  0
   -2.4807    0.0419    2.9386 H   0  0  0  0  0  0  0  0  0  0  0  0
   -1.3073   -1.8968    2.6831 H   0  0  0  0  0  0  0  0  0  0  0  0
   -1.7217   -1.8370    0.9400 H   0  0  0  0  0  0  0  0  0  0  0  0
    0.8821   -1.6903    2.1179 H   0  0  0  0  0  0  0  0  0  0  0  0
    0.2605   -2.4580   -2.4765 H   0  0  0  0  0  0  0  0  0  0  0  0
    2.0589   -2.2712   -2.2687 H   0  0  0  0  0  0  0  0  0  0  0  0
    2.1219   -4.5656   -2.7372 H   0  0  0  0  0  0  0  0  0  0  0  0
    0.3639   -4.7616   -2.3424 H   0  0  0  0  0  0  0  0  0  0  0  0
    1.1649   -5.7592   -0.3851 H   0  0  0  0  0  0  0  0  0  0  0  0
    2.7629   -4.9152   -0.5154 H   0  0  0  0  0  0  0  0  0  0  0  0
    0.2372   -3.9886    0.8344 H   0  0  0  0  0  0  0  0  0  0  0  0
    1.9707   -3.4941    1.1084 H   0  0  0  0  0  0  0  0  0  0  0  0
    2.9834   -0.5319    1.0175 H   0  0  0  0  0  0  0  0  0  0  0  0
    3.1366   -0.5904    2.7950 H   0  0  0  0  0  0  0  0  0  0  0  0
    4.4621    1.5407    2.7695 H   0  0  0  0  0  0  0  0  0  0  0  0
    5.2253    0.2175    1.8488 H   0  0  0  0  0  0  0  0  0  0  0  0
    5.4216    2.3855    0.6581 H   0  0  0  0  0  0  0  0  0  0  0  0
    3.6560    2.6008    0.6498 H   0  0  0  0  0  0  0  0  0  0  0  0
    6.3762    0.2013   -0.4607 H   0  0  0  0  0  0  0  0  0  0  0  0
    6.2577   -1.0924   -2.5616 H   0  0  0  0  0  0  0  0  0  0  0  0
    4.2288   -0.9820   -3.9818 H   0  0  0  0  0  0  0  0  0  0  0  0
    2.3094    0.4280   -3.2954 H   0  0  0  0  0  0  0  0  0  0  0  0
    2.4057    1.7224   -1.1967 H   0  0  0  0  0  0  0  0  0  0  0  0
   -0.6698    1.3945    3.2820 H   0  0  0  0  0  0  0  0  0  0  0  0
   -0.8171    1.9800    1.5749 H   0  0  0  0  0  0  0  0  0  0  0  0
  1  2  1  0
  2  3  1  0
  2  4  1  0
  4  5  1  0
  5  6  2  0
  6  7  1  0
  7  8  1  0
  8  9  1  0
  9 10  1  0
 10 11  1  0
 11 12  2  0
 11 13  1  0
 13 14  1  0
 14 15  1  0
 15 16  1  0
 16 17  1  0
 10 18  1  0
 18 19  1  0
 19 20  2  0
 19 21  1  0
 21 22  1  0
 22 23  1  0
 23 24  1  0
 24 25  2  0
 25 26  1  0
 26 27  2  0
 27 28  1  0
 28 29  2  0
 18 30  1  0
  7 31  1  0
 31 32  2  0
 32  5  1  0
 30  8  1  0
 17 13  1  0
 29 24  1  0
  1 33  1  0
  1 34  1  0
  1 35  1  0
  3 36  1  0
  3 37  1  0
  3 38  1  0
  4 39  1  0
  4 40  1  0
  6 41  1  0
  8 42  1  1
  9 43  1  0
  9 44  1  0
 10 45  1  1
 14 46  1  0
 14 47  1  0
 15 48  1  0
 15 49  1  0
 16 50  1  0
 16 51  1  0
 17 52  1  0
 17 53  1  0
 21 54  1  0
 21 55  1  0
 22 56  1  0
 22 57  1  0
 23 58  1  0
 23 59  1  0
 25 60  1  0
 26 61  1  0
 27 62  1  0
 28 63  1  0
 29 64  1  0
 30 65  1  0
 30 66  1  0
M  END
$$$$
