
     RDKit          3D

 56 57  0  0  0  0  0  0  0  0999 V2000
    0.6878    0.0000    0.0000 Cl  0  0  0  0  0  0  0  0  0  0  0  0
    1.2009    0.7127   -0.4034 N   0  0  0  0  0  0  0  0  0  0  0  0
    1.6626    0.1151    0.8530 C   0  0  1  0  0  0  0  0  0  0  0  0
    0.5689   -0.7953    1.4474 C   0  0  0  0  0  0  0  0  0  0  0  0
    0.1829   -1.9405    0.5446 C   0  0  0  0  0  0  0  0  0  0  0  0
    0.8883   -2.9859    0.5657 O   0  0  0  0  0  0  0  0  0  0  0  0
   -0.9629   -1.8659   -0.3312 N   0  0  0  0  0  0  0  0  0  0  0  0
   -1.3906   -3.0358   -1.1012 C   0  0  0  0  0  0  0  0  0  0  0  0
   -2.2612   -3.9532   -0.2404 C   0  0  0  0  0  0  0  0  0  0  0  0
   -3.5315   -3.2555    0.2722 C   0  0  0  0  0  0  0  0  0  0  0  0
   -3.2357   -2.1468    1.3002 C   0  0  0  0  0  0  0  0  0  0  0  0
   -2.9809   -0.7733    0.6551 C   0  0  0  0  0  0  0  0  0  0  0  0
   -1.8376   -0.7645   -0.2735 N   0  0  0  0  0  0  0  0  0  0  0  0
   -1.7604    0.2314   -1.3112 C   0  0  0  0  0  0  0  0  0  0  0  0
   -1.2557   -0.0756   -2.4253 O   0  0  0  0  0  0  0  0  0  0  0  0
   -2.2570    1.6094   -1.1094 C   0  0  0  0  0  0  0  0  0  0  0  0
   -2.9245    2.2747   -2.1518 C   0  0  0  0  0  0  0  0  0  0  0  0
   -3.3809    3.5846   -1.9751 C   0  0  0  0  0  0  0  0  0  0  0  0
   -3.1630    4.2448   -0.7632 C   0  0  0  0  0  0  0  0  0  0  0  0
   -2.4820    3.5983    0.2714 C   0  0  0  0  0  0  0  0  0  0  0  0
   -2.0252    2.2882    0.0992 C   0  0  0  0  0  0  0  0  0  0  0  0
    3.0070   -0.6305    0.6760 C   0  0  0  0  0  0  0  0  0  0  0  0
    4.1293    0.3184    0.3346 C   0  0  0  0  0  0  0  0  0  0  0  0
    4.5184    0.4972   -1.0043 C   0  0  0  0  0  0  0  0  0  0  0  0
    5.5393    1.3957   -1.3295 C   0  0  0  0  0  0  0  0  0  0  0  0
    5.9078    1.5597   -2.6242 F   0  0  0  0  0  0  0  0  0  0  0  0
    6.1763    2.1263   -0.3219 C   0  0  0  0  0  0  0  0  0  0  0  0
    7.1657    2.9987   -0.6362 F   0  0  0  0  0  0  0  0  0  0  0  0
    5.7908    1.9606    1.0112 C   0  0  0  0  0  0  0  0  0  0  0  0
    4.7698    1.0637    1.3423 C   0  0  0  0  0  0  0  0  0  0  0  0
    4.4056    0.9236    2.6423 F   0  0  0  0  0  0  0  0  0  0  0  0
   -0.6878    0.0000    0.0000 H   0  0  0  0  0  0  0  0  0  0  0  0
    1.8107    1.5296   -0.6360 H   0  0  0  0  0  0  0  0  0  0  0  0
    1.2968    0.0190   -1.1804 H   0  0  0  0  0  0  0  0  0  0  0  0
    1.8179    0.9349    1.5907 H   0  0  0  0  0  0  0  0  0  0  0  0
   -0.3204   -0.1819    1.6932 H   0  0  0  0  0  0  0  0  0  0  0  0
    0.9262   -1.2091    2.4156 H   0  0  0  0  0  0  0  0  0  0  0  0
   -1.9680   -2.7096   -1.9935 H   0  0  0  0  0  0  0  0  0  0  0  0
   -0.5073   -3.5980   -1.4740 H   0  0  0  0  0  0  0  0  0  0  0  0
   -2.5625   -4.8277   -0.8566 H   0  0  0  0  0  0  0  0  0  0  0  0
   -1.6687   -4.3411    0.6167 H   0  0  0  0  0  0  0  0  0  0  0  0
   -4.1233   -2.8557   -0.5804 H   0  0  0  0  0  0  0  0  0  0  0  0
   -4.1590   -4.0278    0.7682 H   0  0  0  0  0  0  0  0  0  0  0  0
   -4.1217   -2.0436    1.9640 H   0  0  0  0  0  0  0  0  0  0  0  0
   -2.3814   -2.4288    1.9535 H   0  0  0  0  0  0  0  0  0  0  0  0
   -3.9019   -0.4578    0.1168 H   0  0  0  0  0  0  0  0  0  0  0  0
   -2.7995   -0.0419    1.4689 H   0  0  0  0  0  0  0  0  0  0  0  0
   -3.1025    1.7763   -3.0969 H   0  0  0  0  0  0  0  0  0  0  0  0
   -3.9025    4.0885   -2.7786 H   0  0  0  0  0  0  0  0  0  0  0  0
   -3.5148    5.2594   -0.6285 H   0  0  0  0  0  0  0  0  0  0  0  0
   -2.3004    4.1156    1.2047 H   0  0  0  0  0  0  0  0  0  0  0  0
   -1.4700    1.8179    0.8992 H   0  0  0  0  0  0  0  0  0  0  0  0
    3.2627   -1.1662    1.6163 H   0  0  0  0  0  0  0  0  0  0  0  0
    2.9151   -1.4066   -0.1146 H   0  0  0  0  0  0  0  0  0  0  0  0
    4.0278   -0.0561   -1.7956 H   0  0  0  0  0  0  0  0  0  0  0  0
    6.2823    2.5301    1.7895 H   0  0  0  0  0  0  0  0  0  0  0  0
  2  3  1  0
  3  4  1  0
  4  5  1  0
  5  6  2  0
  5  7  1  0
  7  8  1  0
  8  9  1  0
  9 10  1  0
 10 11  1  0
 11 12  1  0
 12 13  1  0
 13 14  1  0
 14 15  2  0
 14 16  1  0
 16 17  2  0
 17 18  1  0
 18 19  2  0
 19 20  1  0
 20 21  2  0
  3 22  1  0
 22 23  1  0
 23 24  2  0
 24 25  1  0
 25 26  1  0
 25 27  2  0
 27 28  1  0
 27 29  1  0
 29 30  2  0
 30 31  1  0
 13  7  1  0
 21 16  1  0
 30 23  1  0
  1 32  1  0
  2 33  1  0
  2 34  1  0
  3 35  1  1
  4 36  1  0
  4 37  1  0
  8 38  1  0
  8 39  1  0
  9 40  1  0
  9 41  1  0
 10 42  1  0
 10 43  1  0
 11 44  1  0
 11 45  1  0
 12 46  1  0
 12 47  1  0
 17 48  1  0
 18 49  1  0
 19 50  1  0
 20 51  1  0
 21 52  1  0
 22 53  1  0
 22 54  1  0
 24 55  1  0
 29 56  1  0
M  END
$$$$
