
     RDKit          3D

 40 42  0  0  0  0  0  0  0  0999 V2000
    0.7250   -2.8629   -1.3375 N   0  0  0  0  0  0  0  0  0  0  0  0
    1.2272   -2.0010   -0.2667 C   0  0  0  0  0  0  0  0  0  0  0  0
    0.4420   -0.6642   -0.1511 C   0  0  1  0  0  0  0  0  0  0  0  0
   -1.0463   -0.9361    0.1645 C   0  0  0  0  0  0  0  0  0  0  0  0
   -1.8028    0.2936    0.4387 N   0  0  0  0  0  0  0  0  0  0  0  0
   -3.2356    0.2402    0.3316 C   0  0  0  0  0  0  0  0  0  0  0  0
   -3.8463    0.0819   -0.9193 C   0  0  0  0  0  0  0  0  0  0  0  0
   -5.2377    0.0178   -1.0128 C   0  0  0  0  0  0  0  0  0  0  0  0
   -6.0062    0.1075    0.1497 C   0  0  0  0  0  0  0  0  0  0  0  0
   -5.3995    0.2532    1.3579 N   0  0  0  0  0  0  0  0  0  0  0  0
   -4.0461    0.3196    1.4743 C   0  0  0  0  0  0  0  0  0  0  0  0
   -1.1676    1.4408    1.0374 C   0  0  0  0  0  0  0  0  0  0  0  0
   -1.8642    2.3770    1.5161 O   0  0  0  0  0  0  0  0  0  0  0  0
    0.3200    1.6044    0.9905 C   0  0  0  0  0  0  0  0  0  0  0  0
    1.0445    0.2496    0.9521 C   0  0  2  0  0  0  0  0  0  0  0  0
    2.5419    0.4805    0.7854 C   0  0  0  0  0  0  0  0  0  0  0  0
    3.0556    1.0262   -0.4090 C   0  0  0  0  0  0  0  0  0  0  0  0
    4.4288    1.2378   -0.5610 C   0  0  0  0  0  0  0  0  0  0  0  0
    4.9098    1.7601   -1.7160 F   0  0  0  0  0  0  0  0  0  0  0  0
    5.3059    0.9127    0.4751 C   0  0  0  0  0  0  0  0  0  0  0  0
    4.8118    0.3770    1.6658 C   0  0  0  0  0  0  0  0  0  0  0  0
    3.4392    0.1615    1.8266 C   0  0  0  0  0  0  0  0  0  0  0  0
    2.9928   -0.3589    2.9980 F   0  0  0  0  0  0  0  0  0  0  0  0
    0.5466   -2.2913   -2.1950 H   0  0  0  0  0  0  0  0  0  0  0  0
   -0.1751   -3.3012   -1.0374 H   0  0  0  0  0  0  0  0  0  0  0  0
    2.2960   -1.7948   -0.4828 H   0  0  0  0  0  0  0  0  0  0  0  0
    1.1883   -2.5512    0.6994 H   0  0  0  0  0  0  0  0  0  0  0  0
    0.4957   -0.1364   -1.1291 H   0  0  0  0  0  0  0  0  0  0  0  0
   -1.1260   -1.6038    1.0504 H   0  0  0  0  0  0  0  0  0  0  0  0
   -1.5081   -1.4611   -0.6986 H   0  0  0  0  0  0  0  0  0  0  0  0
   -3.2446    0.0166   -1.8171 H   0  0  0  0  0  0  0  0  0  0  0  0
   -5.7160   -0.1001   -1.9765 H   0  0  0  0  0  0  0  0  0  0  0  0
   -7.0853    0.0590    0.0920 H   0  0  0  0  0  0  0  0  0  0  0  0
   -3.6006    0.4245    2.4548 H   0  0  0  0  0  0  0  0  0  0  0  0
    0.6568    2.1749    1.8841 H   0  0  0  0  0  0  0  0  0  0  0  0
    0.5646    2.2035    0.0875 H   0  0  0  0  0  0  0  0  0  0  0  0
    0.8562   -0.2486    1.9297 H   0  0  0  0  0  0  0  0  0  0  0  0
    2.3946    1.2866   -1.2251 H   0  0  0  0  0  0  0  0  0  0  0  0
    6.3692    1.0769    0.3571 H   0  0  0  0  0  0  0  0  0  0  0  0
    5.4955    0.1282    2.4673 H   0  0  0  0  0  0  0  0  0  0  0  0
  1  2  1  0
  2  3  1  0
  3  4  1  0
  4  5  1  0
  5  6  1  0
  6  7  2  0
  7  8  1  0
  8  9  2  0
  9 10  1  0
 10 11  2  0
  5 12  1  0
 12 13  2  0
 12 14  1  0
 14 15  1  0
 15 16  1  0
 16 17  2  0
 17 18  1  0
 18 19  1  0
 18 20  2  0
 20 21  1  0
 21 22  2  0
 22 23  1  0
 15  3  1  0
 22 16  1  0
 11  6  1  0
  1 24  1  0
  1 25  1  0
  2 26  1  0
  2 27  1  0
  3 28  1  6
  4 29  1  0
  4 30  1  0
  7 31  1  0
  8 32  1  0
  9 33  1  0
 11 34  1  0
 14 35  1  0
 14 36  1  0
 15 37  1  1
 17 38  1  0
 20 39  1  0
 21 40  1  0
M  END
$$$$
