
     RDKit          3D

 59 63  0  0  0  0  0  0  0  0999 V2000
    5.8216    5.3882   -0.4690 N   0  0  0  0  0  0  0  0  0  0  0  0
    5.7207    4.2389   -0.3788 C   0  0  0  0  0  0  0  0  0  0  0  0
    5.5914    2.7761   -0.2639 C   0  0  2  0  0  0  0  0  0  0  0  0
    6.7667    2.0645   -0.9389 C   0  0  0  0  0  0  0  0  0  0  0  0
    6.1526    0.8859   -1.6925 C   0  0  0  0  0  0  0  0  0  0  0  0
    6.2284   -0.2580   -0.9141 F   0  0  0  0  0  0  0  0  0  0  0  0
    6.8056    0.6681   -2.8942 F   0  0  0  0  0  0  0  0  0  0  0  0
    4.6928    1.2599   -1.9242 C   0  0  0  0  0  0  0  0  0  0  0  0
    4.3983    2.3046   -0.9553 N   0  0  0  0  0  0  0  0  0  0  0  0
    3.0618    2.7192   -0.6088 C   0  0  0  0  0  0  0  0  0  0  0  0
    2.8771    3.4784    0.3808 O   0  0  0  0  0  0  0  0  0  0  0  0
    1.8675    2.2277   -1.3763 C   0  0  0  0  0  0  0  0  0  0  0  0
    1.4629    0.9031   -0.9083 N   0  0  0  0  0  0  0  0  0  0  0  0
    0.3266    0.2324   -1.4718 C   0  0  0  0  0  0  0  0  0  0  0  0
   -0.3651    0.8069   -2.3562 O   0  0  0  0  0  0  0  0  0  0  0  0
   -0.0857   -1.1017   -1.0010 C   0  0  0  0  0  0  0  0  0  0  0  0
    0.7335   -1.9735   -0.2817 C   0  0  0  0  0  0  0  0  0  0  0  0
   -0.1755   -3.3358    0.1068 S   0  0  0  0  0  0  0  0  0  0  0  0
   -1.5619   -2.7635   -0.6526 C   0  0  0  0  0  0  0  0  0  0  0  0
   -2.9030   -3.4300   -0.6332 C   0  0  0  0  0  0  0  0  0  0  0  0
   -3.4089   -3.6727    0.7779 C   0  0  0  0  0  0  0  0  0  0  0  0
   -3.8145   -4.9747    1.1264 C   0  0  0  0  0  0  0  0  0  0  0  0
   -4.2887   -5.2571    2.4085 C   0  0  0  0  0  0  0  0  0  0  0  0
   -4.3685   -4.2461    3.3639 C   0  0  0  0  0  0  0  0  0  0  0  0
   -3.9794   -2.9463    3.0405 C   0  0  0  0  0  0  0  0  0  0  0  0
   -3.5115   -2.6388    1.7520 C   0  0  0  0  0  0  0  0  0  0  0  0
   -3.0824   -1.2500    1.4799 C   0  0  0  0  0  0  0  0  0  0  0  0
   -1.9697   -0.7238    2.1547 C   0  0  0  0  0  0  0  0  0  0  0  0
   -1.4949    0.5536    1.8500 C   0  0  0  0  0  0  0  0  0  0  0  0
   -2.1307    1.3254    0.8681 C   0  0  0  0  0  0  0  0  0  0  0  0
   -1.6373    2.5939    0.5263 C   0  0  0  0  0  0  0  0  0  0  0  0
   -2.2698    3.3478   -0.4658 C   0  0  0  0  0  0  0  0  0  0  0  0
   -3.3989    2.8455   -1.1185 C   0  0  0  0  0  0  0  0  0  0  0  0
   -3.9014    1.5840   -0.7863 C   0  0  0  0  0  0  0  0  0  0  0  0
   -3.2724    0.8136    0.2039 C   0  0  0  0  0  0  0  0  0  0  0  0
   -3.7489   -0.4673    0.5246 C   0  0  0  0  0  0  0  0  0  0  0  0
   -1.3511   -1.5529   -1.2102 N   0  0  0  0  0  0  0  0  0  0  0  0
    5.5350    2.4906    0.8091 H   0  0  0  0  0  0  0  0  0  0  0  0
    7.2800    2.7322   -1.6683 H   0  0  0  0  0  0  0  0  0  0  0  0
    7.5127    1.7222   -0.1887 H   0  0  0  0  0  0  0  0  0  0  0  0
    4.0378    0.3763   -1.7658 H   0  0  0  0  0  0  0  0  0  0  0  0
    4.5439    1.6577   -2.9514 H   0  0  0  0  0  0  0  0  0  0  0  0
    2.1094    2.1845   -2.4593 H   0  0  0  0  0  0  0  0  0  0  0  0
    1.0235    2.9393   -1.2433 H   0  0  0  0  0  0  0  0  0  0  0  0
    1.9736    0.4650   -0.1090 H   0  0  0  0  0  0  0  0  0  0  0  0
    1.7694   -1.8181   -0.0146 H   0  0  0  0  0  0  0  0  0  0  0  0
   -2.8115   -4.3846   -1.1943 H   0  0  0  0  0  0  0  0  0  0  0  0
   -3.6414   -2.8070   -1.1803 H   0  0  0  0  0  0  0  0  0  0  0  0
   -3.7608   -5.7802    0.4043 H   0  0  0  0  0  0  0  0  0  0  0  0
   -4.5932   -6.2644    2.6621 H   0  0  0  0  0  0  0  0  0  0  0  0
   -4.7326   -4.4699    4.3584 H   0  0  0  0  0  0  0  0  0  0  0  0
   -4.0474   -2.1732    3.7966 H   0  0  0  0  0  0  0  0  0  0  0  0
   -1.4480   -1.3194    2.8939 H   0  0  0  0  0  0  0  0  0  0  0  0
   -0.6195    0.9290    2.3663 H   0  0  0  0  0  0  0  0  0  0  0  0
   -0.7599    2.9968    1.0183 H   0  0  0  0  0  0  0  0  0  0  0  0
   -1.8829    4.3233   -0.7306 H   0  0  0  0  0  0  0  0  0  0  0  0
   -3.8840    3.4342   -1.8863 H   0  0  0  0  0  0  0  0  0  0  0  0
   -4.7735    1.2080   -1.3077 H   0  0  0  0  0  0  0  0  0  0  0  0
   -4.6178   -0.8679    0.0150 H   0  0  0  0  0  0  0  0  0  0  0  0
  1  2  3  0
  2  3  1  0
  3  4  1  0
  4  5  1  0
  5  6  1  0
  5  7  1  0
  5  8  1  0
  8  9  1  0
  9 10  1  0
 10 11  2  0
 10 12  1  0
 12 13  1  0
 13 14  1  0
 14 15  2  0
 14 16  1  0
 16 17  2  0
 17 18  1  0
 18 19  1  0
 19 20  1  0
 20 21  1  0
 21 22  2  0
 22 23  1  0
 23 24  2  0
 24 25  1  0
 25 26  2  0
 26 27  1  0
 27 28  2  0
 28 29  1  0
 29 30  2  0
 30 31  1  0
 31 32  2  0
 32 33  1  0
 33 34  2  0
 34 35  1  0
 35 36  2  0
 19 37  2  0
  9  3  1  0
 37 16  1  0
 26 21  1  0
 36 27  1  0
 35 30  1  0
  3 38  1  1
  4 39  1  0
  4 40  1  0
  8 41  1  0
  8 42  1  0
 12 43  1  0
 12 44  1  0
 13 45  1  0
 17 46  1  0
 20 47  1  0
 20 48  1  0
 22 49  1  0
 23 50  1  0
 24 51  1  0
 25 52  1  0
 28 53  1  0
 29 54  1  0
 31 55  1  0
 32 56  1  0
 33 57  1  0
 34 58  1  0
 36 59  1  0
M  END
$$$$
