
     RDKit          3D

 38 39  0  0  0  0  0  0  0  0999 V2000
    1.1811    2.0417   -1.1820 N   0  0  0  0  0  0  0  0  0  0  0  0
    0.4954    1.0700   -0.3234 C   0  0  1  0  0  0  0  0  0  0  0  0
    1.3885    0.6806    0.8673 C   0  0  0  0  0  0  0  0  0  0  0  0
    2.6254   -0.0462    0.4070 C   0  0  0  0  0  0  0  0  0  0  0  0
    2.5710   -1.4213    0.1233 C   0  0  0  0  0  0  0  0  0  0  0  0
    3.7098   -2.0916   -0.3338 C   0  0  0  0  0  0  0  0  0  0  0  0
    4.9067   -1.3938   -0.5178 C   0  0  0  0  0  0  0  0  0  0  0  0
    4.9658   -0.0236   -0.2483 C   0  0  0  0  0  0  0  0  0  0  0  0
    3.8292    0.6508    0.2088 C   0  0  0  0  0  0  0  0  0  0  0  0
   -0.8265    1.6155    0.1799 C   0  0  0  0  0  0  0  0  0  0  0  0
   -0.9168    2.8437    0.4549 O   0  0  0  0  0  0  0  0  0  0  0  0
   -1.9574    0.7549    0.4314 N   0  0  0  0  0  0  0  0  0  0  0  0
   -3.1427    1.2289    1.1304 C   0  0  0  0  0  0  0  0  0  0  0  0
   -4.0718    0.0270    1.2409 C   0  0  0  0  0  0  0  0  0  0  0  0
   -3.1966   -1.1933    0.9722 C   0  0  0  0  0  0  0  0  0  0  0  0
   -2.0106   -0.6767    0.1552 C   0  0  1  0  0  0  0  0  0  0  0  0
   -2.2288   -0.9320   -1.4152 B   0  0  0  0  0  0  0  0  0  0  0  0
   -1.3075   -1.7960   -2.1487 O   0  0  0  0  0  0  0  0  0  0  0  0
   -3.3513   -0.3085   -2.1127 O   0  0  0  0  0  0  0  0  0  0  0  0
    0.5487    2.2942   -1.9764 H   0  0  0  0  0  0  0  0  0  0  0  0
    1.3798    2.9163   -0.6430 H   0  0  0  0  0  0  0  0  0  0  0  0
    0.3108    0.1634   -0.9342 H   0  0  0  0  0  0  0  0  0  0  0  0
    0.8223    0.0217    1.5621 H   0  0  0  0  0  0  0  0  0  0  0  0
    1.6675    1.5889    1.4462 H   0  0  0  0  0  0  0  0  0  0  0  0
    1.6468   -1.9711    0.2534 H   0  0  0  0  0  0  0  0  0  0  0  0
    3.6635   -3.1514   -0.5484 H   0  0  0  0  0  0  0  0  0  0  0  0
    5.7870   -1.9138   -0.8728 H   0  0  0  0  0  0  0  0  0  0  0  0
    5.8918    0.5168   -0.3966 H   0  0  0  0  0  0  0  0  0  0  0  0
    3.8864    1.7142    0.4056 H   0  0  0  0  0  0  0  0  0  0  0  0
   -3.6274    2.0491    0.5577 H   0  0  0  0  0  0  0  0  0  0  0  0
   -2.8592    1.5903    2.1429 H   0  0  0  0  0  0  0  0  0  0  0  0
   -4.5484   -0.0287    2.2436 H   0  0  0  0  0  0  0  0  0  0  0  0
   -4.8632    0.0933    0.4622 H   0  0  0  0  0  0  0  0  0  0  0  0
   -3.7700   -2.0034    0.4681 H   0  0  0  0  0  0  0  0  0  0  0  0
   -2.8232   -1.5870    1.9436 H   0  0  0  0  0  0  0  0  0  0  0  0
   -1.0811   -1.1807    0.4967 H   0  0  0  0  0  0  0  0  0  0  0  0
   -1.6982   -2.7026   -2.0694 H   0  0  0  0  0  0  0  0  0  0  0  0
   -2.9968    0.5599   -2.4308 H   0  0  0  0  0  0  0  0  0  0  0  0
  1  2  1  0
  2  3  1  0
  3  4  1  0
  4  5  2  0
  5  6  1  0
  6  7  2  0
  7  8  1  0
  8  9  2  0
  2 10  1  0
 10 11  2  0
 10 12  1  0
 12 13  1  0
 13 14  1  0
 14 15  1  0
 15 16  1  0
 16 17  1  0
 17 18  1  0
 17 19  1  0
  9  4  1  0
 16 12  1  0
  1 20  1  0
  1 21  1  0
  2 22  1  6
  3 23  1  0
  3 24  1  0
  5 25  1  0
  6 26  1  0
  7 27  1  0
  8 28  1  0
  9 29  1  0
 13 30  1  0
 13 31  1  0
 14 32  1  0
 14 33  1  0
 15 34  1  0
 15 35  1  0
 16 36  1  1
 18 37  1  0
 19 38  1  0
M  END
$$$$
