
     RDKit          3D

 66 68  0  0  0  0  0  0  0  0999 V2000
   10.2993    1.1207   -1.3387 C   0  0  0  0  0  0  0  0  0  0  0  0
    9.2233    0.8392   -2.3810 C   0  0  0  0  0  0  0  0  0  0  0  0
    8.0605    0.2879   -1.7667 O   0  0  0  0  0  0  0  0  0  0  0  0
    7.9754   -1.0390   -1.3296 C   0  0  0  0  0  0  0  0  0  0  0  0
    8.9311   -1.8417   -1.5106 O   0  0  0  0  0  0  0  0  0  0  0  0
    6.7377   -1.5039   -0.6330 C   0  0  0  0  0  0  0  0  0  0  0  0
    6.5548   -0.7726    0.5884 O   0  0  0  0  0  0  0  0  0  0  0  0
    5.3538   -0.0942    0.5045 C   0  0  0  0  0  0  0  0  0  0  0  0
    4.7607    0.7380    1.4484 C   0  0  0  0  0  0  0  0  0  0  0  0
    3.5213    1.3191    1.1246 C   0  0  0  0  0  0  0  0  0  0  0  0
    2.9099    1.0604   -0.1291 C   0  0  0  0  0  0  0  0  0  0  0  0
    1.5711    1.6659   -0.4485 C   0  0  0  0  0  0  0  0  0  0  0  0
    0.5297    1.0428    0.3643 N   0  0  0  0  0  0  0  0  0  0  0  0
    0.0719   -0.2967    0.1321 C   0  0  0  0  0  0  0  0  0  0  0  0
    0.5382   -0.9702   -0.8273 O   0  0  0  0  0  0  0  0  0  0  0  0
   -0.9350   -0.9197    1.0565 C   0  0  0  0  0  0  0  0  0  0  0  0
   -0.0694   -2.0839    2.1541 S   0  0  0  0  0  0  0  0  0  0  0  0
   -1.3772   -3.3220    1.9423 C   0  0  0  0  0  0  0  0  0  0  0  0
   -2.0391   -3.0817    0.5983 C   0  0  0  0  0  0  0  0  0  0  0  0
   -1.9488   -1.6593    0.3057 N   0  0  0  0  0  0  0  0  0  0  0  0
   -2.7879   -1.0637   -0.7045 C   0  0  0  0  0  0  0  0  0  0  0  0
   -3.2678   -1.7900   -1.6170 O   0  0  0  0  0  0  0  0  0  0  0  0
   -3.1638    0.3977   -0.6721 C   0  0  0  0  0  0  0  0  0  0  0  0
   -4.4802    0.6583    0.0937 C   0  0  2  0  0  0  0  0  0  0  0  0
   -4.3551    0.2195    1.4870 N   0  0  0  0  0  0  0  0  0  0  0  0
   -5.6792   -0.0352   -0.5936 C   0  0  0  0  0  0  0  0  0  0  0  0
   -7.0009    0.4726   -0.0693 C   0  0  0  0  0  0  0  0  0  0  0  0
   -7.5027    1.7048   -0.5221 C   0  0  0  0  0  0  0  0  0  0  0  0
   -8.7159    2.1979   -0.0321 C   0  0  0  0  0  0  0  0  0  0  0  0
   -9.1911    3.3872   -0.4776 F   0  0  0  0  0  0  0  0  0  0  0  0
   -9.4361    1.4669    0.9172 C   0  0  0  0  0  0  0  0  0  0  0  0
  -10.6122    1.9445    1.3943 F   0  0  0  0  0  0  0  0  0  0  0  0
   -8.9425    0.2435    1.3782 C   0  0  0  0  0  0  0  0  0  0  0  0
   -7.7295   -0.2551    0.8916 C   0  0  0  0  0  0  0  0  0  0  0  0
   -7.2661   -1.4409    1.3622 F   0  0  0  0  0  0  0  0  0  0  0  0
    3.5484    0.2055   -1.0556 C   0  0  0  0  0  0  0  0  0  0  0  0
    4.7727   -0.3496   -0.6950 C   0  0  0  0  0  0  0  0  0  0  0  0
    5.5792   -1.2019   -1.4251 O   0  0  0  0  0  0  0  0  0  0  0  0
    0.6878    0.0000    0.0000 Cl  0  0  0  0  0  0  0  0  0  0  0  0
   11.1739    1.6011   -1.8255 H   0  0  0  0  0  0  0  0  0  0  0  0
    9.9012    1.8034   -0.5585 H   0  0  0  0  0  0  0  0  0  0  0  0
   10.6321    0.1759   -0.8605 H   0  0  0  0  0  0  0  0  0  0  0  0
    9.6125    0.1510   -3.1626 H   0  0  0  0  0  0  0  0  0  0  0  0
    8.9438    1.7952   -2.8717 H   0  0  0  0  0  0  0  0  0  0  0  0
    6.7771   -2.5942   -0.4203 H   0  0  0  0  0  0  0  0  0  0  0  0
    5.2368    0.9293    2.4010 H   0  0  0  0  0  0  0  0  0  0  0  0
    3.0349    1.9653    1.8447 H   0  0  0  0  0  0  0  0  0  0  0  0
    1.6074    2.7548   -0.2281 H   0  0  0  0  0  0  0  0  0  0  0  0
    1.3214    1.5584   -1.5266 H   0  0  0  0  0  0  0  0  0  0  0  0
    0.1107    1.5975    1.1445 H   0  0  0  0  0  0  0  0  0  0  0  0
   -1.4236   -0.1489    1.6859 H   0  0  0  0  0  0  0  0  0  0  0  0
   -2.1211   -3.1905    2.7571 H   0  0  0  0  0  0  0  0  0  0  0  0
   -0.9517   -4.3461    1.9965 H   0  0  0  0  0  0  0  0  0  0  0  0
   -1.5140   -3.6538   -0.1969 H   0  0  0  0  0  0  0  0  0  0  0  0
   -3.1027   -3.4034    0.6435 H   0  0  0  0  0  0  0  0  0  0  0  0
   -3.2686    0.7660   -1.7160 H   0  0  0  0  0  0  0  0  0  0  0  0
   -2.3531    1.0023   -0.2183 H   0  0  0  0  0  0  0  0  0  0  0  0
   -4.6525    1.7594    0.0768 H   0  0  0  0  0  0  0  0  0  0  0  0
   -3.5875    0.7708    1.9342 H   0  0  0  0  0  0  0  0  0  0  0  0
   -5.2209    0.4938    2.0041 H   0  0  0  0  0  0  0  0  0  0  0  0
   -5.6081   -1.1362   -0.4600 H   0  0  0  0  0  0  0  0  0  0  0  0
   -5.6416    0.1548   -1.6889 H   0  0  0  0  0  0  0  0  0  0  0  0
   -6.9516    2.2827   -1.2540 H   0  0  0  0  0  0  0  0  0  0  0  0
   -9.4998   -0.3190    2.1163 H   0  0  0  0  0  0  0  0  0  0  0  0
    3.1066   -0.0205   -2.0176 H   0  0  0  0  0  0  0  0  0  0  0  0
   -0.6878    0.0000    0.0000 H   0  0  0  0  0  0  0  0  0  0  0  0
  1  2  1  0
  2  3  1  0
  3  4  1  0
  4  5  2  0
  4  6  1  0
  6  7  1  0
  7  8  1  0
  8  9  2  0
  9 10  1  0
 10 11  2  0
 11 12  1  0
 12 13  1  0
 13 14  1  0
 14 15  2  0
 14 16  1  0
 16 17  1  0
 17 18  1  0
 18 19  1  0
 19 20  1  0
 20 21  1  0
 21 22  2  0
 21 23  1  0
 23 24  1  0
 24 25  1  0
 24 26  1  0
 26 27  1  0
 27 28  2  0
 28 29  1  0
 29 30  1  0
 29 31  2  0
 31 32  1  0
 31 33  1  0
 33 34  2  0
 34 35  1  0
 11 36  1  0
 36 37  2  0
 37 38  1  0
 38  6  1  0
 37  8  1  0
 20 16  1  0
 34 27  1  0
  1 40  1  0
  1 41  1  0
  1 42  1  0
  2 43  1  0
  2 44  1  0
  6 45  1  0
  9 46  1  0
 10 47  1  0
 12 48  1  0
 12 49  1  0
 13 50  1  0
 16 51  1  0
 18 52  1  0
 18 53  1  0
 19 54  1  0
 19 55  1  0
 23 56  1  0
 23 57  1  0
 24 58  1  1
 25 59  1  0
 25 60  1  0
 26 61  1  0
 26 62  1  0
 28 63  1  0
 33 64  1  0
 36 65  1  0
 39 66  1  0
M  END
$$$$
