
     RDKit          3D

 34 34  0  0  0  0  0  0  0  0999 V2000
   -2.2431   -0.9740    1.6300 C   0  0  0  0  0  0  0  0  0  0  0  0
   -2.0188   -0.0744    0.3925 C   0  0  0  0  0  0  0  0  0  0  0  0
   -1.4140    1.2677    0.8637 C   0  0  0  0  0  0  0  0  0  0  0  0
   -3.3909    0.2232   -0.2536 C   0  0  0  0  0  0  0  0  0  0  0  0
   -1.0759   -0.7443   -0.6691 C   0  0  2  0  0  0  0  0  0  0  0  0
   -1.6892   -1.9440   -1.2542 N   0  0  0  0  0  0  0  0  0  0  0  0
    0.3095   -1.0629   -0.1237 C   0  0  0  0  0  0  0  0  0  0  0  0
    0.4765   -2.1100    0.5601 O   0  0  0  0  0  0  0  0  0  0  0  0
    1.4256   -0.1723   -0.3269 N   0  0  0  0  0  0  0  0  0  0  0  0
    1.5218    0.7736   -1.4277 C   0  0  0  0  0  0  0  0  0  0  0  0
    2.9808    1.2064   -1.4760 C   0  0  0  0  0  0  0  0  0  0  0  0
    3.5705    0.8364   -0.1190 C   0  0  0  0  0  0  0  0  0  0  0  0
    2.6614   -0.2597    0.4393 C   0  0  1  0  0  0  0  0  0  0  0  0
    2.4003   -0.0549    1.8742 C   0  0  0  0  0  0  0  0  0  0  0  0
    2.1932    0.1057    3.0014 N   0  0  0  0  0  0  0  0  0  0  0  0
   -2.9330   -0.4797    2.3479 H   0  0  0  0  0  0  0  0  0  0  0  0
   -1.2906   -1.1656    2.1663 H   0  0  0  0  0  0  0  0  0  0  0  0
   -2.6980   -1.9456    1.3468 H   0  0  0  0  0  0  0  0  0  0  0  0
   -1.2544    1.9507    0.0023 H   0  0  0  0  0  0  0  0  0  0  0  0
   -0.4409    1.1108    1.3750 H   0  0  0  0  0  0  0  0  0  0  0  0
   -2.0936    1.7753    1.5821 H   0  0  0  0  0  0  0  0  0  0  0  0
   -4.0564    0.7563    0.4597 H   0  0  0  0  0  0  0  0  0  0  0  0
   -3.2699    0.8607   -1.1560 H   0  0  0  0  0  0  0  0  0  0  0  0
   -3.9019   -0.7161   -0.5549 H   0  0  0  0  0  0  0  0  0  0  0  0
   -0.9659   -0.0152   -1.4997 H   0  0  0  0  0  0  0  0  0  0  0  0
   -1.6933   -2.7273   -0.5624 H   0  0  0  0  0  0  0  0  0  0  0  0
   -1.1044   -2.2550   -2.0642 H   0  0  0  0  0  0  0  0  0  0  0  0
    1.2363    0.2886   -2.3866 H   0  0  0  0  0  0  0  0  0  0  0  0
    0.8656    1.6475   -1.2300 H   0  0  0  0  0  0  0  0  0  0  0  0
    3.0738    2.2960   -1.6762 H   0  0  0  0  0  0  0  0  0  0  0  0
    3.5108    0.6426   -2.2753 H   0  0  0  0  0  0  0  0  0  0  0  0
    3.5658    1.7418    0.5300 H   0  0  0  0  0  0  0  0  0  0  0  0
    4.6172    0.4760   -0.2224 H   0  0  0  0  0  0  0  0  0  0  0  0
    3.1253   -1.2581    0.2841 H   0  0  0  0  0  0  0  0  0  0  0  0
  1  2  1  0
  2  3  1  0
  2  4  1  0
  2  5  1  0
  5  6  1  0
  5  7  1  0
  7  8  2  0
  7  9  1  0
  9 10  1  0
 10 11  1  0
 11 12  1  0
 12 13  1  0
 13 14  1  0
 14 15  3  0
 13  9  1  0
  1 16  1  0
  1 17  1  0
  1 18  1  0
  3 19  1  0
  3 20  1  0
  3 21  1  0
  4 22  1  0
  4 23  1  0
  4 24  1  0
  5 25  1  6
  6 26  1  0
  6 27  1  0
 10 28  1  0
 10 29  1  0
 11 30  1  0
 11 31  1  0
 12 32  1  0
 12 33  1  0
 13 34  1  1
M  END
$$$$
