
     RDKit          3D

 59 63  0  0  0  0  0  0  0  0999 V2000
    2.0360    4.6744    1.8162 C   0  0  0  0  0  0  0  0  0  0  0  0
    1.6438    3.7280    0.7725 C   0  0  0  0  0  0  0  0  0  0  0  0
    1.3224    2.9458   -0.0860 C   0  0  0  0  0  0  0  0  0  0  0  0
    0.9353    1.9880   -1.1255 C   0  0  0  0  0  0  0  0  0  0  0  0
    0.7847    0.6531   -0.5452 N   0  0  0  0  0  0  0  0  0  0  0  0
    1.6937   -0.3629   -0.5113 C   0  0  0  0  0  0  0  0  0  0  0  0
    3.0500   -0.2536   -0.9781 N   0  0  0  0  0  0  0  0  0  0  0  0
    3.9210    0.8160   -0.4630 C   0  0  0  0  0  0  0  0  0  0  0  0
    5.3982    0.3967   -0.4773 C   0  0  0  0  0  0  0  0  0  0  0  0
    5.5362   -1.0602   -0.0268 C   0  0  0  0  0  0  0  0  0  0  0  0
    4.7958   -2.0321   -0.9780 C   0  0  1  0  0  0  0  0  0  0  0  0
    4.3233   -3.1963   -0.2248 N   0  0  0  0  0  0  0  0  0  0  0  0
    3.6367   -1.3534   -1.7537 C   0  0  0  0  0  0  0  0  0  0  0  0
    1.2128   -1.5060    0.0441 N   0  0  0  0  0  0  0  0  0  0  0  0
   -0.0418   -1.1578    0.3730 C   0  0  0  0  0  0  0  0  0  0  0  0
   -0.3103    0.1295    0.0378 C   0  0  0  0  0  0  0  0  0  0  0  0
   -1.6148    0.7482    0.3655 C   0  0  0  0  0  0  0  0  0  0  0  0
   -1.8325    1.9631    0.1143 O   0  0  0  0  0  0  0  0  0  0  0  0
   -2.6241   -0.0694    1.0179 N   0  0  0  0  0  0  0  0  0  0  0  0
   -3.9546    0.4750    1.3267 C   0  0  0  0  0  0  0  0  0  0  0  0
   -4.7105    0.8051    0.0574 C   0  0  0  0  0  0  0  0  0  0  0  0
   -4.8976    2.1534   -0.2993 C   0  0  0  0  0  0  0  0  0  0  0  0
   -5.5728    2.4913   -1.4741 C   0  0  0  0  0  0  0  0  0  0  0  0
   -6.0713    1.4900   -2.3075 C   0  0  0  0  0  0  0  0  0  0  0  0
   -5.8981    0.1470   -1.9680 C   0  0  0  0  0  0  0  0  0  0  0  0
   -5.2217   -0.2059   -0.7915 C   0  0  0  0  0  0  0  0  0  0  0  0
   -5.0766   -1.6065   -0.4769 C   0  0  0  0  0  0  0  0  0  0  0  0
   -4.9649   -2.7317   -0.2301 N   0  0  0  0  0  0  0  0  0  0  0  0
   -2.2554   -1.4207    1.3905 C   0  0  0  0  0  0  0  0  0  0  0  0
   -2.9618   -2.1915    2.1418 N   0  0  0  0  0  0  0  0  0  0  0  0
   -2.2326   -3.4439    2.3598 C   0  0  0  0  0  0  0  0  0  0  0  0
   -0.8735   -3.2655    1.6474 C   0  0  0  0  0  0  0  0  0  0  0  0
   -1.0100   -1.9689    1.0243 N   0  0  0  0  0  0  0  0  0  0  0  0
    1.2850    4.6565    2.6326 H   0  0  0  0  0  0  0  0  0  0  0  0
    3.0286    4.3877    2.2205 H   0  0  0  0  0  0  0  0  0  0  0  0
    2.0923    5.6960    1.3873 H   0  0  0  0  0  0  0  0  0  0  0  0
   -0.0161    2.3146   -1.5928 H   0  0  0  0  0  0  0  0  0  0  0  0
    1.6964    1.9769   -1.9316 H   0  0  0  0  0  0  0  0  0  0  0  0
    3.6355    1.0523    0.5861 H   0  0  0  0  0  0  0  0  0  0  0  0
    3.8042    1.7335   -1.0742 H   0  0  0  0  0  0  0  0  0  0  0  0
    5.8143    0.5103   -1.5025 H   0  0  0  0  0  0  0  0  0  0  0  0
    5.9787    1.0569    0.2027 H   0  0  0  0  0  0  0  0  0  0  0  0
    6.6133   -1.3320    0.0167 H   0  0  0  0  0  0  0  0  0  0  0  0
    5.1323   -1.1459    1.0068 H   0  0  0  0  0  0  0  0  0  0  0  0
    5.5321   -2.3910   -1.7324 H   0  0  0  0  0  0  0  0  0  0  0  0
    3.9506   -3.9051   -0.8979 H   0  0  0  0  0  0  0  0  0  0  0  0
    3.5329   -2.9083    0.3965 H   0  0  0  0  0  0  0  0  0  0  0  0
    2.8629   -2.0965   -2.0483 H   0  0  0  0  0  0  0  0  0  0  0  0
    4.0384   -0.9316   -2.7009 H   0  0  0  0  0  0  0  0  0  0  0  0
   -3.8355    1.3777    1.9648 H   0  0  0  0  0  0  0  0  0  0  0  0
   -4.5553   -0.2422    1.9253 H   0  0  0  0  0  0  0  0  0  0  0  0
   -4.5165    2.9473    0.3311 H   0  0  0  0  0  0  0  0  0  0  0  0
   -5.7087    3.5319   -1.7392 H   0  0  0  0  0  0  0  0  0  0  0  0
   -6.5942    1.7548   -3.2175 H   0  0  0  0  0  0  0  0  0  0  0  0
   -6.2939   -0.6190   -2.6245 H   0  0  0  0  0  0  0  0  0  0  0  0
   -2.8008   -4.2885    1.9145 H   0  0  0  0  0  0  0  0  0  0  0  0
   -2.0920   -3.6144    3.4485 H   0  0  0  0  0  0  0  0  0  0  0  0
   -0.7115   -4.0484    0.8759 H   0  0  0  0  0  0  0  0  0  0  0  0
   -0.0381   -3.2515    2.3802 H   0  0  0  0  0  0  0  0  0  0  0  0
  1  2  1  0
  2  3  3  0
  3  4  1  0
  4  5  1  0
  5  6  1  0
  6  7  1  0
  7  8  1  0
  8  9  1  0
  9 10  1  0
 10 11  1  0
 11 12  1  0
 11 13  1  0
  6 14  2  0
 14 15  1  0
 15 16  2  0
 16 17  1  0
 17 18  2  0
 17 19  1  0
 19 20  1  0
 20 21  1  0
 21 22  2  0
 22 23  1  0
 23 24  2  0
 24 25  1  0
 25 26  2  0
 26 27  1  0
 27 28  3  0
 19 29  1  0
 29 30  2  0
 30 31  1  0
 31 32  1  0
 32 33  1  0
 16  5  1  0
 26 21  1  0
 33 29  1  0
 13  7  1  0
 33 15  1  0
  1 34  1  0
  1 35  1  0
  1 36  1  0
  4 37  1  0
  4 38  1  0
  8 39  1  0
  8 40  1  0
  9 41  1  0
  9 42  1  0
 10 43  1  0
 10 44  1  0
 11 45  1  6
 12 46  1  0
 12 47  1  0
 13 48  1  0
 13 49  1  0
 20 50  1  0
 20 51  1  0
 22 52  1  0
 23 53  1  0
 24 54  1  0
 25 55  1  0
 31 56  1  0
 31 57  1  0
 32 58  1  0
 32 59  1  0
M  END
$$$$
