
     RDKit          3D

 50 51  0  0  0  0  0  0  0  0999 V2000
    7.7339   -0.2783    1.9908 C   0  0  0  0  0  0  0  0  0  0  0  0
    7.9523   -0.8791    0.6770 N   0  0  0  0  0  0  0  0  0  0  0  0
    7.1814    0.0853   -0.5457 S   0  0  0  0  0  0  0  0  0  0  0  0
    7.7610    1.4729   -0.5370 O   0  0  0  0  0  0  0  0  0  0  0  0
    7.4393   -0.5278   -1.8934 O   0  0  0  0  0  0  0  0  0  0  0  0
    5.4418    0.1536   -0.2698 C   0  0  0  0  0  0  0  0  0  0  0  0
    4.8534    1.2945    0.2919 C   0  0  0  0  0  0  0  0  0  0  0  0
    3.4751    1.3335    0.5217 C   0  0  0  0  0  0  0  0  0  0  0  0
    2.6685    0.2361    0.1982 C   0  0  0  0  0  0  0  0  0  0  0  0
    1.2913    0.3253    0.4476 O   0  0  0  0  0  0  0  0  0  0  0  0
    0.3510   -0.7073    0.1601 C   0  0  0  0  0  0  0  0  0  0  0  0
   -1.0589   -0.2594    0.5652 C   0  0  0  0  0  0  0  0  0  0  0  0
   -1.5469    0.8684   -0.2472 N   0  0  0  0  0  0  0  0  0  0  0  0
   -2.0861    0.4464   -1.5522 C   0  0  0  0  0  0  0  0  0  0  0  0
   -3.6198    0.4605   -1.5356 C   0  0  0  0  0  0  0  0  0  0  0  0
   -4.1873    1.8816   -1.3392 C   0  0  0  0  0  0  0  0  0  0  0  0
   -5.6045    1.8230   -1.1603 O   0  0  0  0  0  0  0  0  0  0  0  0
   -6.1936    0.8071   -0.4011 C   0  0  0  0  0  0  0  0  0  0  0  0
   -7.5270    0.9013    0.0095 C   0  0  0  0  0  0  0  0  0  0  0  0
   -8.0856   -0.1126    0.7962 C   0  0  0  0  0  0  0  0  0  0  0  0
   -7.3126   -1.2193    1.1688 C   0  0  0  0  0  0  0  0  0  0  0  0
   -5.9825   -1.3210    0.7456 C   0  0  0  0  0  0  0  0  0  0  0  0
   -5.4286   -0.3154   -0.0523 C   0  0  0  0  0  0  0  0  0  0  0  0
   -4.1123   -0.4120   -0.5134 O   0  0  0  0  0  0  0  0  0  0  0  0
    3.2628   -0.9118   -0.3609 C   0  0  0  0  0  0  0  0  0  0  0  0
    4.6415   -0.9499   -0.5902 C   0  0  0  0  0  0  0  0  0  0  0  0
    0.6878    0.0000    0.0000 Cl  0  0  0  0  0  0  0  0  0  0  0  0
    8.1629    0.7456    2.0245 H   0  0  0  0  0  0  0  0  0  0  0  0
    6.6504   -0.2415    2.2368 H   0  0  0  0  0  0  0  0  0  0  0  0
    8.2465   -0.8903    2.7622 H   0  0  0  0  0  0  0  0  0  0  0  0
    7.4843   -1.8145    0.6718 H   0  0  0  0  0  0  0  0  0  0  0  0
    5.4587    2.1515    0.5573 H   0  0  0  0  0  0  0  0  0  0  0  0
    3.0309    2.2205    0.9554 H   0  0  0  0  0  0  0  0  0  0  0  0
    0.6149   -1.6169    0.7419 H   0  0  0  0  0  0  0  0  0  0  0  0
    0.3798   -0.9540   -0.9223 H   0  0  0  0  0  0  0  0  0  0  0  0
   -1.7573   -1.1227    0.5011 H   0  0  0  0  0  0  0  0  0  0  0  0
   -1.0388    0.0558    1.6303 H   0  0  0  0  0  0  0  0  0  0  0  0
   -0.7772    1.5629   -0.3936 H   0  0  0  0  0  0  0  0  0  0  0  0
   -1.7330    1.1405   -2.3478 H   0  0  0  0  0  0  0  0  0  0  0  0
   -1.7380   -0.5699   -1.8424 H   0  0  0  0  0  0  0  0  0  0  0  0
   -3.9816    0.0827   -2.5174 H   0  0  0  0  0  0  0  0  0  0  0  0
   -3.7385    2.3505   -0.4373 H   0  0  0  0  0  0  0  0  0  0  0  0
   -3.9545    2.5159   -2.2205 H   0  0  0  0  0  0  0  0  0  0  0  0
   -8.1226    1.7614   -0.2680 H   0  0  0  0  0  0  0  0  0  0  0  0
   -9.1153   -0.0387    1.1215 H   0  0  0  0  0  0  0  0  0  0  0  0
   -7.7461   -1.9997    1.7807 H   0  0  0  0  0  0  0  0  0  0  0  0
   -5.3896   -2.1825    1.0250 H   0  0  0  0  0  0  0  0  0  0  0  0
    2.6704   -1.7788   -0.6189 H   0  0  0  0  0  0  0  0  0  0  0  0
    5.0858   -1.8413   -1.0149 H   0  0  0  0  0  0  0  0  0  0  0  0
   -0.6878    0.0000    0.0000 H   0  0  0  0  0  0  0  0  0  0  0  0
  1  2  1  0
  2  3  1  0
  3  4  2  0
  3  5  2  0
  3  6  1  0
  6  7  2  0
  7  8  1  0
  8  9  2  0
  9 10  1  0
 10 11  1  0
 11 12  1  0
 12 13  1  0
 13 14  1  0
 14 15  1  0
 15 16  1  0
 16 17  1  0
 17 18  1  0
 18 19  2  0
 19 20  1  0
 20 21  2  0
 21 22  1  0
 22 23  2  0
 23 24  1  0
  9 25  1  0
 25 26  2  0
 26  6  1  0
 24 15  1  0
 23 18  1  0
  1 28  1  0
  1 29  1  0
  1 30  1  0
  2 31  1  0
  7 32  1  0
  8 33  1  0
 11 34  1  0
 11 35  1  0
 12 36  1  0
 12 37  1  0
 13 38  1  0
 14 39  1  0
 14 40  1  0
 15 41  1  0
 16 42  1  0
 16 43  1  0
 19 44  1  0
 20 45  1  0
 21 46  1  0
 22 47  1  0
 25 48  1  0
 26 49  1  0
 27 50  1  0
M  END
$$$$
