
     RDKit          3D

 42 43  0  0  0  0  0  0  0  0999 V2000
   -1.3798   -0.1695   -3.0129 C   0  0  0  0  0  0  0  0  0  0  0  0
   -1.5180    0.5246   -1.6547 C   0  0  2  0  0  0  0  0  0  0  0  0
   -0.3296    1.3540   -1.4213 N   0  0  0  0  0  0  0  0  0  0  0  0
    0.4372    0.7487   -0.3236 C   0  0  2  0  0  0  0  0  0  0  0  0
    1.8898    0.6009   -0.7091 C   0  0  0  0  0  0  0  0  0  0  0  0
    2.2051    0.5923   -1.9310 O   0  0  0  0  0  0  0  0  0  0  0  0
    2.9100    0.3899    0.2879 N   0  0  0  0  0  0  0  0  0  0  0  0
    2.7244    0.6566    1.7055 C   0  0  0  0  0  0  0  0  0  0  0  0
    4.1144    0.5995    2.3247 C   0  0  0  0  0  0  0  0  0  0  0  0
    4.9983   -0.1208    1.3109 C   0  0  0  0  0  0  0  0  0  0  0  0
    4.2775    0.0032   -0.0332 C   0  0  1  0  0  0  0  0  0  0  0  0
    4.3019   -1.2746   -0.7660 C   0  0  0  0  0  0  0  0  0  0  0  0
    4.3199   -2.2782   -1.3419 N   0  0  0  0  0  0  0  0  0  0  0  0
   -0.1876   -0.6067   -0.0065 C   0  0  0  0  0  0  0  0  0  0  0  0
   -1.6166   -0.4951   -0.5110 C   0  0  1  0  0  0  0  0  0  0  0  0
   -2.5777   -0.0082    0.5634 C   0  0  0  0  0  0  0  0  0  0  0  0
   -2.1493    0.7633    1.4669 O   0  0  0  0  0  0  0  0  0  0  0  0
   -3.9837   -0.3446    0.5325 N   0  0  0  0  0  0  0  0  0  0  0  0
   -4.5518   -1.1398   -0.5621 C   0  0  0  0  0  0  0  0  0  0  0  0
   -4.8536    0.1436    1.6079 C   0  0  0  0  0  0  0  0  0  0  0  0
   -1.2848    0.5915   -3.8164 H   0  0  0  0  0  0  0  0  0  0  0  0
   -2.2787   -0.7878   -3.2213 H   0  0  0  0  0  0  0  0  0  0  0  0
   -0.4794   -0.8206   -3.0309 H   0  0  0  0  0  0  0  0  0  0  0  0
   -2.4318    1.1629   -1.7006 H   0  0  0  0  0  0  0  0  0  0  0  0
   -0.6381    2.3121   -1.1300 H   0  0  0  0  0  0  0  0  0  0  0  0
    0.3573    1.3977    0.5769 H   0  0  0  0  0  0  0  0  0  0  0  0
    2.0662   -0.1207    2.1495 H   0  0  0  0  0  0  0  0  0  0  0  0
    2.2847    1.6653    1.8609 H   0  0  0  0  0  0  0  0  0  0  0  0
    4.4967    1.6327    2.4797 H   0  0  0  0  0  0  0  0  0  0  0  0
    4.1001    0.0677    3.3009 H   0  0  0  0  0  0  0  0  0  0  0  0
    5.1045   -1.1848    1.6236 H   0  0  0  0  0  0  0  0  0  0  0  0
    6.0098    0.3388    1.2662 H   0  0  0  0  0  0  0  0  0  0  0  0
    4.7513    0.7960   -0.6521 H   0  0  0  0  0  0  0  0  0  0  0  0
    0.3283   -1.4183   -0.5692 H   0  0  0  0  0  0  0  0  0  0  0  0
   -0.1299   -0.8482    1.0777 H   0  0  0  0  0  0  0  0  0  0  0  0
   -1.9402   -1.4957   -0.8696 H   0  0  0  0  0  0  0  0  0  0  0  0
   -4.1406   -2.1703   -0.5323 H   0  0  0  0  0  0  0  0  0  0  0  0
   -4.3122   -0.6677   -1.5376 H   0  0  0  0  0  0  0  0  0  0  0  0
   -5.6569   -1.2126   -0.4869 H   0  0  0  0  0  0  0  0  0  0  0  0
   -5.9013   -0.2014    1.4824 H   0  0  0  0  0  0  0  0  0  0  0  0
   -4.4841   -0.2300    2.5864 H   0  0  0  0  0  0  0  0  0  0  0  0
   -4.8516    1.2541    1.6162 H   0  0  0  0  0  0  0  0  0  0  0  0
  1  2  1  0
  2  3  1  0
  3  4  1  0
  4  5  1  0
  5  6  2  0
  5  7  1  0
  7  8  1  0
  8  9  1  0
  9 10  1  0
 10 11  1  0
 11 12  1  0
 12 13  3  0
  4 14  1  0
 14 15  1  0
 15 16  1  0
 16 17  2  0
 16 18  1  0
 18 19  1  0
 18 20  1  0
 15  2  1  0
 11  7  1  0
  1 21  1  0
  1 22  1  0
  1 23  1  0
  2 24  1  6
  3 25  1  0
  4 26  1  1
  8 27  1  0
  8 28  1  0
  9 29  1  0
  9 30  1  0
 10 31  1  0
 10 32  1  0
 11 33  1  6
 14 34  1  0
 14 35  1  0
 15 36  1  6
 19 37  1  0
 19 38  1  0
 19 39  1  0
 20 40  1  0
 20 41  1  0
 20 42  1  0
M  END
$$$$
