
     RDKit          3D

 49 51  0  0  0  0  0  0  0  0999 V2000
   -3.0911   -2.9851    1.5220 C   0  0  0  0  0  0  0  0  0  0  0  0
   -2.3046   -2.5499    0.3132 C   0  0  0  0  0  0  0  0  0  0  0  0
   -2.1043   -3.5081   -0.8366 C   0  0  0  0  0  0  0  0  0  0  0  0
   -1.7917   -1.3025    0.2888 C   0  0  0  0  0  0  0  0  0  0  0  0
   -0.9866   -0.7634   -0.8656 C   0  0  0  0  0  0  0  0  0  0  0  0
   -0.5239    0.5958   -0.5724 N   0  0  0  0  0  0  0  0  0  0  0  0
    0.7006    0.9511   -0.0970 C   0  0  0  0  0  0  0  0  0  0  0  0
    1.7329    0.0165    0.2484 N   0  0  0  0  0  0  0  0  0  0  0  0
    1.5142   -0.9498    1.3298 C   0  0  0  0  0  0  0  0  0  0  0  0
    2.7634   -1.0392    2.2139 C   0  0  0  0  0  0  0  0  0  0  0  0
    4.0778   -1.1985    1.4129 C   0  0  0  0  0  0  0  0  0  0  0  0
    3.8803   -1.1742   -0.1152 C   0  0  2  0  0  0  0  0  0  0  0  0
    5.1783   -1.1101   -0.7902 N   0  0  0  0  0  0  0  0  0  0  0  0
    2.9771    0.0039   -0.5301 C   0  0  0  0  0  0  0  0  0  0  0  0
    0.7911    2.3293    0.0684 C   0  0  0  0  0  0  0  0  0  0  0  0
    1.8908    3.0799    0.6133 C   0  0  0  0  0  0  0  0  0  0  0  0
    2.7759    3.6824    1.0519 N   0  0  0  0  0  0  0  0  0  0  0  0
   -0.4392    2.8114   -0.3077 C   0  0  0  0  0  0  0  0  0  0  0  0
   -0.8992    4.0824   -0.2922 N   0  0  0  0  0  0  0  0  0  0  0  0
   -2.1858    4.3150   -0.6825 C   0  0  0  0  0  0  0  0  0  0  0  0
   -3.0041    3.2787   -1.0776 N   0  0  0  0  0  0  0  0  0  0  0  0
   -4.3915    3.5595   -1.4649 C   0  0  0  0  0  0  0  0  0  0  0  0
   -2.5392    1.9832   -1.0701 C   0  0  0  0  0  0  0  0  0  0  0  0
   -3.2931    1.0252   -1.3936 O   0  0  0  0  0  0  0  0  0  0  0  0
   -1.2157    1.7558   -0.6843 C   0  0  0  0  0  0  0  0  0  0  0  0
   -2.4499   -2.9268    2.4271 H   0  0  0  0  0  0  0  0  0  0  0  0
   -3.4557   -4.0284    1.4209 H   0  0  0  0  0  0  0  0  0  0  0  0
   -3.9705   -2.3203    1.6566 H   0  0  0  0  0  0  0  0  0  0  0  0
   -2.5312   -3.0783   -1.7670 H   0  0  0  0  0  0  0  0  0  0  0  0
   -1.0212   -3.7030   -0.9828 H   0  0  0  0  0  0  0  0  0  0  0  0
   -2.6045   -4.4806   -0.6481 H   0  0  0  0  0  0  0  0  0  0  0  0
   -1.9605   -0.6487    1.1418 H   0  0  0  0  0  0  0  0  0  0  0  0
   -1.5968   -0.7628   -1.7925 H   0  0  0  0  0  0  0  0  0  0  0  0
   -0.1138   -1.4230   -1.0558 H   0  0  0  0  0  0  0  0  0  0  0  0
    0.6479   -0.6458    1.9577 H   0  0  0  0  0  0  0  0  0  0  0  0
    1.2911   -1.9484    0.8965 H   0  0  0  0  0  0  0  0  0  0  0  0
    2.8241   -0.1130    2.8269 H   0  0  0  0  0  0  0  0  0  0  0  0
    2.6468   -1.8919    2.9175 H   0  0  0  0  0  0  0  0  0  0  0  0
    4.5660   -2.1573    1.6939 H   0  0  0  0  0  0  0  0  0  0  0  0
    4.7733   -0.3808    1.7057 H   0  0  0  0  0  0  0  0  0  0  0  0
    3.3805   -2.1228   -0.4154 H   0  0  0  0  0  0  0  0  0  0  0  0
    5.0206   -1.1756   -1.8222 H   0  0  0  0  0  0  0  0  0  0  0  0
    5.6235   -0.1819   -0.6027 H   0  0  0  0  0  0  0  0  0  0  0  0
    3.5156    0.9629   -0.3727 H   0  0  0  0  0  0  0  0  0  0  0  0
    2.7331   -0.0882   -1.6109 H   0  0  0  0  0  0  0  0  0  0  0  0
   -2.5545    5.3331   -0.6695 H   0  0  0  0  0  0  0  0  0  0  0  0
   -4.5720    4.6499   -1.5834 H   0  0  0  0  0  0  0  0  0  0  0  0
   -4.6221    3.0730   -2.4369 H   0  0  0  0  0  0  0  0  0  0  0  0
   -5.0822    3.1696   -0.6875 H   0  0  0  0  0  0  0  0  0  0  0  0
  1  2  1  0
  2  3  1  0
  2  4  2  3
  4  5  1  0
  5  6  1  0
  6  7  1  0
  7  8  1  0
  8  9  1  0
  9 10  1  0
 10 11  1  0
 11 12  1  0
 12 13  1  0
 12 14  1  0
  7 15  2  0
 15 16  1  0
 16 17  3  0
 15 18  1  0
 18 19  1  0
 19 20  2  0
 20 21  1  0
 21 22  1  0
 21 23  1  0
 23 24  2  0
 23 25  1  0
 25  6  1  0
 14  8  1  0
 25 18  2  0
  1 26  1  0
  1 27  1  0
  1 28  1  0
  3 29  1  0
  3 30  1  0
  3 31  1  0
  4 32  1  0
  5 33  1  0
  5 34  1  0
  9 35  1  0
  9 36  1  0
 10 37  1  0
 10 38  1  0
 11 39  1  0
 11 40  1  0
 12 41  1  6
 13 42  1  0
 13 43  1  0
 14 44  1  0
 14 45  1  0
 20 46  1  0
 22 47  1  0
 22 48  1  0
 22 49  1  0
M  END
$$$$
