
     RDKit          3D

 49 50  0  0  0  0  0  0  0  0999 V2000
   -1.8065    0.8944    2.3344 C   0  0  0  0  0  0  0  0  0  0  0  0
   -1.9147   -0.1099    1.3315 O   0  0  0  0  0  0  0  0  0  0  0  0
   -2.9046   -1.1067    1.3033 C   0  0  0  0  0  0  0  0  0  0  0  0
   -3.8774   -1.2183    2.3169 C   0  0  0  0  0  0  0  0  0  0  0  0
   -4.8564   -2.2124    2.2499 C   0  0  0  0  0  0  0  0  0  0  0  0
   -4.8796   -3.1022    1.1755 C   0  0  0  0  0  0  0  0  0  0  0  0
   -3.9209   -3.0048    0.1652 C   0  0  0  0  0  0  0  0  0  0  0  0
   -2.9246   -2.0160    0.2244 C   0  0  0  0  0  0  0  0  0  0  0  0
   -1.9003   -1.9117   -0.8742 C   0  0  0  0  0  0  0  0  0  0  0  0
   -2.1338   -0.6833   -1.6454 N   0  0  0  0  0  0  0  0  0  0  0  0
   -0.9673   -0.3250   -2.4639 C   0  0  0  0  0  0  0  0  0  0  0  0
    0.0166    0.5218   -1.6430 C   0  0  0  0  0  0  0  0  0  0  0  0
    1.1537    1.1100   -2.5078 C   0  0  2  0  0  0  0  0  0  0  0  0
    1.9787    0.0737   -3.1377 N   0  0  0  0  0  0  0  0  0  0  0  0
    2.0176    2.0415   -1.6904 C   0  0  0  0  0  0  0  0  0  0  0  0
    2.1840    3.2245   -2.0945 O   0  0  0  0  0  0  0  0  0  0  0  0
    2.6041    1.6387   -0.4382 N   0  0  0  0  0  0  0  0  0  0  0  0
    3.3883    0.3973   -0.3437 C   0  0  0  0  0  0  0  0  0  0  0  0
    4.3545    0.4382    0.8458 C   0  0  0  0  0  0  0  0  0  0  0  0
    3.6300    0.7637    2.1627 C   0  0  0  0  0  0  0  0  0  0  0  0
    2.4965    1.7998    2.0102 C   0  0  0  0  0  0  0  0  0  0  0  0
    2.5759    2.5755    0.6921 C   0  0  0  0  0  0  0  0  0  0  0  0
   -0.9609    1.5664    2.0836 H   0  0  0  0  0  0  0  0  0  0  0  0
   -1.6115    0.4273    3.3226 H   0  0  0  0  0  0  0  0  0  0  0  0
   -2.7375    1.4985    2.3722 H   0  0  0  0  0  0  0  0  0  0  0  0
   -3.8866   -0.5407    3.1595 H   0  0  0  0  0  0  0  0  0  0  0  0
   -5.6009   -2.2911    3.0317 H   0  0  0  0  0  0  0  0  0  0  0  0
   -5.6424   -3.8684    1.1251 H   0  0  0  0  0  0  0  0  0  0  0  0
   -3.9562   -3.7020   -0.6628 H   0  0  0  0  0  0  0  0  0  0  0  0
   -0.8927   -1.9080   -0.4052 H   0  0  0  0  0  0  0  0  0  0  0  0
   -1.9435   -2.7978   -1.5477 H   0  0  0  0  0  0  0  0  0  0  0  0
   -2.9402   -0.8631   -2.2894 H   0  0  0  0  0  0  0  0  0  0  0  0
   -0.4657   -1.2334   -2.8677 H   0  0  0  0  0  0  0  0  0  0  0  0
   -1.3113    0.2787   -3.3334 H   0  0  0  0  0  0  0  0  0  0  0  0
   -0.5459    1.3608   -1.1760 H   0  0  0  0  0  0  0  0  0  0  0  0
    0.4421   -0.0896   -0.8212 H   0  0  0  0  0  0  0  0  0  0  0  0
    0.6814    1.7185   -3.3138 H   0  0  0  0  0  0  0  0  0  0  0  0
    2.0608   -0.7579   -2.5099 H   0  0  0  0  0  0  0  0  0  0  0  0
    1.4985   -0.2541   -4.0072 H   0  0  0  0  0  0  0  0  0  0  0  0
    2.7042   -0.4690   -0.2269 H   0  0  0  0  0  0  0  0  0  0  0  0
    3.9895    0.2602   -1.2685 H   0  0  0  0  0  0  0  0  0  0  0  0
    5.1274    1.2145    0.6527 H   0  0  0  0  0  0  0  0  0  0  0  0
    4.8757   -0.5391    0.9381 H   0  0  0  0  0  0  0  0  0  0  0  0
    3.2055   -0.1738    2.5842 H   0  0  0  0  0  0  0  0  0  0  0  0
    4.3791    1.1402    2.8929 H   0  0  0  0  0  0  0  0  0  0  0  0
    1.5189    1.2712    2.0445 H   0  0  0  0  0  0  0  0  0  0  0  0
    2.5206    2.5132    2.8621 H   0  0  0  0  0  0  0  0  0  0  0  0
    1.6880    3.2417    0.6195 H   0  0  0  0  0  0  0  0  0  0  0  0
    3.4900    3.2078    0.6755 H   0  0  0  0  0  0  0  0  0  0  0  0
  1  2  1  0
  2  3  1  0
  3  4  2  0
  4  5  1  0
  5  6  2  0
  6  7  1  0
  7  8  2  0
  8  9  1  0
  9 10  1  0
 10 11  1  0
 11 12  1  0
 12 13  1  0
 13 14  1  0
 13 15  1  0
 15 16  2  0
 15 17  1  0
 17 18  1  0
 18 19  1  0
 19 20  1  0
 20 21  1  0
 21 22  1  0
  8  3  1  0
 22 17  1  0
  1 23  1  0
  1 24  1  0
  1 25  1  0
  4 26  1  0
  5 27  1  0
  6 28  1  0
  7 29  1  0
  9 30  1  0
  9 31  1  0
 10 32  1  0
 11 33  1  0
 11 34  1  0
 12 35  1  0
 12 36  1  0
 13 37  1  6
 14 38  1  0
 14 39  1  0
 18 40  1  0
 18 41  1  0
 19 42  1  0
 19 43  1  0
 20 44  1  0
 20 45  1  0
 21 46  1  0
 21 47  1  0
 22 48  1  0
 22 49  1  0
M  END
$$$$
