
     RDKit          3D

 49 50  0  0  0  0  0  0  0  0999 V2000
   -1.0667   -0.7374   -0.8912 C   0  0  0  0  0  0  0  0  0  0  0  0
   -0.3674    0.5269   -0.3335 C   0  0  0  0  0  0  0  0  0  0  0  0
    0.2782    0.2045    1.0376 C   0  0  0  0  0  0  0  0  0  0  0  0
   -1.4126    1.6704   -0.1603 C   0  0  0  0  0  0  0  0  0  0  0  0
   -2.5027    1.3961    0.8556 C   0  0  0  0  0  0  0  0  0  0  0  0
   -2.2819    1.6891    2.0623 O   0  0  0  0  0  0  0  0  0  0  0  0
   -3.7639    0.7922    0.4961 N   0  0  0  0  0  0  0  0  0  0  0  0
   -4.3532   -0.2078    1.3965 C   0  0  0  0  0  0  0  0  0  0  0  0
   -5.8737   -0.2494    1.2292 C   0  0  0  0  0  0  0  0  0  0  0  0
   -6.2222   -0.3889   -0.1331 O   0  0  0  0  0  0  0  0  0  0  0  0
   -5.8401    0.7755   -0.8370 C   0  0  0  0  0  0  0  0  0  0  0  0
   -4.3157    0.9296   -0.8584 C   0  0  0  0  0  0  0  0  0  0  0  0
    0.6482    1.0320   -1.2968 N   0  0  0  0  0  0  0  0  0  0  0  0
    1.8672    0.2179   -1.4685 C   0  0  0  0  0  0  0  0  0  0  0  0
    2.9769    0.7254   -0.5849 C   0  0  0  0  0  0  0  0  0  0  0  0
    2.9799    1.9397   -0.2423 O   0  0  0  0  0  0  0  0  0  0  0  0
    4.0707   -0.1239   -0.1847 N   0  0  0  0  0  0  0  0  0  0  0  0
    5.2152    0.3856    0.5548 C   0  0  0  0  0  0  0  0  0  0  0  0
    6.1545   -0.8014    0.7363 C   0  0  1  0  0  0  0  0  0  0  0  0
    6.0078   -1.3271    2.0097 F   0  0  0  0  0  0  0  0  0  0  0  0
    5.7117   -1.8323   -0.2993 C   0  0  0  0  0  0  0  0  0  0  0  0
    4.2481   -1.5096   -0.5995 C   0  0  1  0  0  0  0  0  0  0  0  0
    3.3517   -2.3857    0.1734 C   0  0  0  0  0  0  0  0  0  0  0  0
    2.6469   -3.0741    0.7804 N   0  0  0  0  0  0  0  0  0  0  0  0
   -0.3654   -1.5895   -0.9889 H   0  0  0  0  0  0  0  0  0  0  0  0
   -1.5065   -0.5320   -1.8901 H   0  0  0  0  0  0  0  0  0  0  0  0
   -1.8758   -1.0735   -0.2121 H   0  0  0  0  0  0  0  0  0  0  0  0
   -0.4813   -0.1527    1.7637 H   0  0  0  0  0  0  0  0  0  0  0  0
    1.0287   -0.6069    0.9550 H   0  0  0  0  0  0  0  0  0  0  0  0
    0.7739    1.1066    1.4551 H   0  0  0  0  0  0  0  0  0  0  0  0
   -0.8778    2.5937    0.1555 H   0  0  0  0  0  0  0  0  0  0  0  0
   -1.8533    1.9129   -1.1478 H   0  0  0  0  0  0  0  0  0  0  0  0
   -3.9299   -1.2069    1.1580 H   0  0  0  0  0  0  0  0  0  0  0  0
   -4.1214    0.0254    2.4580 H   0  0  0  0  0  0  0  0  0  0  0  0
   -6.3409    0.6577    1.6774 H   0  0  0  0  0  0  0  0  0  0  0  0
   -6.2690   -1.1249    1.7861 H   0  0  0  0  0  0  0  0  0  0  0  0
   -6.3177    1.6842   -0.4031 H   0  0  0  0  0  0  0  0  0  0  0  0
   -6.2031    0.6903   -1.8830 H   0  0  0  0  0  0  0  0  0  0  0  0
   -3.8742    0.1531   -1.5181 H   0  0  0  0  0  0  0  0  0  0  0  0
   -4.0865    1.9347   -1.2717 H   0  0  0  0  0  0  0  0  0  0  0  0
    0.1987    1.1507   -2.2361 H   0  0  0  0  0  0  0  0  0  0  0  0
    2.2223    0.3031   -2.5189 H   0  0  0  0  0  0  0  0  0  0  0  0
    1.6740   -0.8550   -1.2903 H   0  0  0  0  0  0  0  0  0  0  0  0
    5.7153    1.1833   -0.0367 H   0  0  0  0  0  0  0  0  0  0  0  0
    4.8910    0.7945    1.5364 H   0  0  0  0  0  0  0  0  0  0  0  0
    7.2150   -0.5056    0.5828 H   0  0  0  0  0  0  0  0  0  0  0  0
    6.3111   -1.6909   -1.2259 H   0  0  0  0  0  0  0  0  0  0  0  0
    5.8694   -2.8739    0.0606 H   0  0  0  0  0  0  0  0  0  0  0  0
    4.0466   -1.6256   -1.6866 H   0  0  0  0  0  0  0  0  0  0  0  0
  1  2  1  0
  2  3  1  0
  2  4  1  0
  4  5  1  0
  5  6  2  0
  5  7  1  0
  7  8  1  0
  8  9  1  0
  9 10  1  0
 10 11  1  0
 11 12  1  0
  2 13  1  0
 13 14  1  0
 14 15  1  0
 15 16  2  0
 15 17  1  0
 17 18  1  0
 18 19  1  0
 19 20  1  0
 19 21  1  0
 21 22  1  0
 22 23  1  0
 23 24  3  0
 12  7  1  0
 22 17  1  0
  1 25  1  0
  1 26  1  0
  1 27  1  0
  3 28  1  0
  3 29  1  0
  3 30  1  0
  4 31  1  0
  4 32  1  0
  8 33  1  0
  8 34  1  0
  9 35  1  0
  9 36  1  0
 11 37  1  0
 11 38  1  0
 12 39  1  0
 12 40  1  0
 13 41  1  0
 14 42  1  0
 14 43  1  0
 18 44  1  0
 18 45  1  0
 19 46  1  6
 21 47  1  0
 21 48  1  0
 22 49  1  6
M  END
$$$$
