
     RDKit          3D

 45 47  0  0  0  0  0  0  0  0999 V2000
    4.2028   -2.3845   -1.2115 N   0  0  0  0  0  0  0  0  0  0  0  0
    4.2527   -1.3200   -0.7598 C   0  0  0  0  0  0  0  0  0  0  0  0
    4.3303    0.0323   -0.1829 C   0  0  2  0  0  0  0  0  0  0  0  0
    5.1512    0.0028    1.1114 C   0  0  0  0  0  0  0  0  0  0  0  0
    4.3450    0.7803    2.1427 C   0  0  0  0  0  0  0  0  0  0  0  0
    2.9227    0.8361    1.6093 C   0  0  0  0  0  0  0  0  0  0  0  0
    3.0079    0.5351    0.1857 N   0  0  0  0  0  0  0  0  0  0  0  0
    2.0430    1.0800   -0.7464 C   0  0  0  0  0  0  0  0  0  0  0  0
    1.3446    2.0711   -0.3979 O   0  0  0  0  0  0  0  0  0  0  0  0
    1.7519    0.4608   -2.0985 C   0  0  1  0  0  0  0  0  0  0  0  0
    2.9773    0.3034   -2.8808 N   0  0  0  0  0  0  0  0  0  0  0  0
    1.0190   -0.8879   -1.9489 C   0  0  0  0  0  0  0  0  0  0  0  0
   -0.3262   -0.7204   -1.2874 C   0  0  0  0  0  0  0  0  0  0  0  0
   -1.4349   -0.3000   -2.0365 C   0  0  0  0  0  0  0  0  0  0  0  0
   -2.6736   -0.1080   -1.4184 C   0  0  0  0  0  0  0  0  0  0  0  0
   -2.8239   -0.3250   -0.0367 C   0  0  0  0  0  0  0  0  0  0  0  0
   -4.1391   -0.1167    0.6214 C   0  0  0  0  0  0  0  0  0  0  0  0
   -4.2175    0.4963    1.8866 C   0  0  0  0  0  0  0  0  0  0  0  0
   -5.4571    0.6917    2.5034 C   0  0  0  0  0  0  0  0  0  0  0  0
   -6.6296    0.2781    1.8673 C   0  0  0  0  0  0  0  0  0  0  0  0
   -6.5652   -0.3314    0.6124 C   0  0  0  0  0  0  0  0  0  0  0  0
   -5.3285   -0.5285   -0.0096 C   0  0  0  0  0  0  0  0  0  0  0  0
   -1.7071   -0.7381    0.7118 C   0  0  0  0  0  0  0  0  0  0  0  0
   -0.4698   -0.9318    0.0922 C   0  0  0  0  0  0  0  0  0  0  0  0
    4.8068    0.7251   -0.9098 H   0  0  0  0  0  0  0  0  0  0  0  0
    6.1495    0.4685    0.9589 H   0  0  0  0  0  0  0  0  0  0  0  0
    5.3039   -1.0349    1.4877 H   0  0  0  0  0  0  0  0  0  0  0  0
    4.7520    1.8122    2.2284 H   0  0  0  0  0  0  0  0  0  0  0  0
    4.3820    0.2920    3.1409 H   0  0  0  0  0  0  0  0  0  0  0  0
    2.2851    0.0745    2.1076 H   0  0  0  0  0  0  0  0  0  0  0  0
    2.4997    1.8480    1.7908 H   0  0  0  0  0  0  0  0  0  0  0  0
    1.0778    1.1494   -2.6605 H   0  0  0  0  0  0  0  0  0  0  0  0
    3.3986    1.2506   -3.0232 H   0  0  0  0  0  0  0  0  0  0  0  0
    2.7210   -0.0433   -3.8339 H   0  0  0  0  0  0  0  0  0  0  0  0
    1.6340   -1.6041   -1.3683 H   0  0  0  0  0  0  0  0  0  0  0  0
    0.8701   -1.3403   -2.9538 H   0  0  0  0  0  0  0  0  0  0  0  0
   -1.3375   -0.1139   -3.0990 H   0  0  0  0  0  0  0  0  0  0  0  0
   -3.5089    0.2315   -2.0178 H   0  0  0  0  0  0  0  0  0  0  0  0
   -3.3230    0.8405    2.3904 H   0  0  0  0  0  0  0  0  0  0  0  0
   -5.5085    1.1676    3.4742 H   0  0  0  0  0  0  0  0  0  0  0  0
   -7.5880    0.4301    2.3467 H   0  0  0  0  0  0  0  0  0  0  0  0
   -7.4743   -0.6548    0.1221 H   0  0  0  0  0  0  0  0  0  0  0  0
   -5.3010   -1.0183   -0.9748 H   0  0  0  0  0  0  0  0  0  0  0  0
   -1.7934   -0.9257    1.7747 H   0  0  0  0  0  0  0  0  0  0  0  0
    0.3778   -1.2449    0.6894 H   0  0  0  0  0  0  0  0  0  0  0  0
  1  2  3  0
  2  3  1  0
  3  4  1  0
  4  5  1  0
  5  6  1  0
  6  7  1  0
  7  8  1  0
  8  9  2  0
  8 10  1  0
 10 11  1  0
 10 12  1  0
 12 13  1  0
 13 14  2  0
 14 15  1  0
 15 16  2  0
 16 17  1  0
 17 18  2  0
 18 19  1  0
 19 20  2  0
 20 21  1  0
 21 22  2  0
 16 23  1  0
 23 24  2  0
  7  3  1  0
 24 13  1  0
 22 17  1  0
  3 25  1  6
  4 26  1  0
  4 27  1  0
  5 28  1  0
  5 29  1  0
  6 30  1  0
  6 31  1  0
 10 32  1  6
 11 33  1  0
 11 34  1  0
 12 35  1  0
 12 36  1  0
 14 37  1  0
 15 38  1  0
 18 39  1  0
 19 40  1  0
 20 41  1  0
 21 42  1  0
 22 43  1  0
 23 44  1  0
 24 45  1  0
M  END
$$$$
