
     RDKit          3D

 49 51  0  0  0  0  0  0  0  0999 V2000
   -3.4769    1.5285   -2.1319 N   0  0  0  0  0  0  0  0  0  0  0  0
   -2.3182    0.7456   -1.6856 C   0  0  2  0  0  0  0  0  0  0  0  0
   -2.7653   -0.5011   -0.9474 C   0  0  0  0  0  0  0  0  0  0  0  0
   -2.2753   -1.6046   -1.3137 O   0  0  0  0  0  0  0  0  0  0  0  0
   -3.6673   -0.4821    0.1807 N   0  0  0  0  0  0  0  0  0  0  0  0
   -4.5042    0.6365    0.5876 C   0  0  0  0  0  0  0  0  0  0  0  0
   -5.2010    0.1905    1.8657 C   0  0  0  0  0  0  0  0  0  0  0  0
   -5.0737   -1.3274    1.9017 C   0  0  0  0  0  0  0  0  0  0  0  0
   -3.9020   -1.6668    0.9916 C   0  0  0  0  0  0  0  0  0  0  0  0
   -1.3204    1.5887   -0.8442 C   0  0  2  0  0  0  0  0  0  0  0  0
   -0.7753    2.7958   -1.6044 C   0  0  0  0  0  0  0  0  0  0  0  0
    0.5908    3.0962   -0.9943 C   0  0  0  0  0  0  0  0  0  0  0  0
    0.9950    1.8669   -0.1765 C   0  0  2  0  0  0  0  0  0  0  0  0
    2.2878    1.4067   -0.5728 O   0  0  0  0  0  0  0  0  0  0  0  0
    2.9878    0.4064    0.1098 C   0  0  0  0  0  0  0  0  0  0  0  0
    2.5115   -0.0990    1.1633 O   0  0  0  0  0  0  0  0  0  0  0  0
    4.2718   -0.0025   -0.3793 N   0  0  0  0  0  0  0  0  0  0  0  0
    4.9969   -1.1460    0.1050 C   0  0  0  0  0  0  0  0  0  0  0  0
    6.4002   -1.1158    0.1171 C   0  0  0  0  0  0  0  0  0  0  0  0
    7.1289   -2.2228    0.5624 C   0  0  0  0  0  0  0  0  0  0  0  0
    6.4625   -3.3767    0.9852 C   0  0  0  0  0  0  0  0  0  0  0  0
    7.5632   -5.0473    1.6528 I   0  0  0  0  0  0  0  0  0  0  0  0
    5.0657   -3.4254    0.9544 C   0  0  0  0  0  0  0  0  0  0  0  0
    4.3340   -2.3195    0.5106 C   0  0  0  0  0  0  0  0  0  0  0  0
   -0.0733    0.8085   -0.4403 C   0  0  0  0  0  0  0  0  0  0  0  0
   -3.6944    2.2850   -1.4444 H   0  0  0  0  0  0  0  0  0  0  0  0
   -3.2287    2.0136   -3.0250 H   0  0  0  0  0  0  0  0  0  0  0  0
   -1.7763    0.4006   -2.5980 H   0  0  0  0  0  0  0  0  0  0  0  0
   -3.8968    1.5396    0.7936 H   0  0  0  0  0  0  0  0  0  0  0  0
   -5.2583    0.8454   -0.2014 H   0  0  0  0  0  0  0  0  0  0  0  0
   -6.2663    0.5081    1.8795 H   0  0  0  0  0  0  0  0  0  0  0  0
   -4.6797    0.6254    2.7471 H   0  0  0  0  0  0  0  0  0  0  0  0
   -4.9028   -1.6949    2.9369 H   0  0  0  0  0  0  0  0  0  0  0  0
   -6.0041   -1.7864    1.5001 H   0  0  0  0  0  0  0  0  0  0  0  0
   -2.9934   -1.8917    1.5911 H   0  0  0  0  0  0  0  0  0  0  0  0
   -4.1547   -2.5380    0.3484 H   0  0  0  0  0  0  0  0  0  0  0  0
   -1.8109    1.9556    0.0827 H   0  0  0  0  0  0  0  0  0  0  0  0
   -1.4572    3.6691   -1.5113 H   0  0  0  0  0  0  0  0  0  0  0  0
   -0.6456    2.5529   -2.6828 H   0  0  0  0  0  0  0  0  0  0  0  0
    0.5227    3.9861   -0.3305 H   0  0  0  0  0  0  0  0  0  0  0  0
    1.3294    3.3135   -1.7974 H   0  0  0  0  0  0  0  0  0  0  0  0
    1.0021    2.1349    0.9047 H   0  0  0  0  0  0  0  0  0  0  0  0
    4.7376    0.6204   -1.0772 H   0  0  0  0  0  0  0  0  0  0  0  0
    6.9284   -0.2288   -0.2098 H   0  0  0  0  0  0  0  0  0  0  0  0
    8.2104   -2.1839    0.5763 H   0  0  0  0  0  0  0  0  0  0  0  0
    4.5469   -4.3229    1.2654 H   0  0  0  0  0  0  0  0  0  0  0  0
    3.2561   -2.3939    0.4604 H   0  0  0  0  0  0  0  0  0  0  0  0
   -0.2607    0.1924    0.4661 H   0  0  0  0  0  0  0  0  0  0  0  0
    0.2531    0.1445   -1.2723 H   0  0  0  0  0  0  0  0  0  0  0  0
  1  2  1  0
  2  3  1  0
  3  4  2  0
  3  5  1  0
  5  6  1  0
  6  7  1  0
  7  8  1  0
  8  9  1  0
  2 10  1  0
 10 11  1  0
 11 12  1  0
 12 13  1  0
 13 14  1  0
 14 15  1  0
 15 16  2  0
 15 17  1  0
 17 18  1  0
 18 19  2  0
 19 20  1  0
 20 21  2  0
 21 22  1  0
 21 23  1  0
 23 24  2  0
 13 25  1  0
  9  5  1  0
 25 10  1  0
 24 18  1  0
  1 26  1  0
  1 27  1  0
  2 28  1  6
  6 29  1  0
  6 30  1  0
  7 31  1  0
  7 32  1  0
  8 33  1  0
  8 34  1  0
  9 35  1  0
  9 36  1  0
 10 37  1  1
 11 38  1  0
 11 39  1  0
 12 40  1  0
 12 41  1  0
 13 42  1  1
 17 43  1  0
 19 44  1  0
 20 45  1  0
 23 46  1  0
 24 47  1  0
 25 48  1  0
 25 49  1  0
M  END
$$$$
