
     RDKit          3D

 45 47  0  0  0  0  0  0  0  0999 V2000
    7.3505    1.2880    2.6716 N   0  0  0  0  0  0  0  0  0  0  0  0
    6.5244    0.8096    2.0174 C   0  0  0  0  0  0  0  0  0  0  0  0
    5.4969    0.2145    1.2037 C   0  0  0  0  0  0  0  0  0  0  0  0
    4.9764    0.9139    0.1077 C   0  0  0  0  0  0  0  0  0  0  0  0
    3.9772    0.3371   -0.6823 C   0  0  0  0  0  0  0  0  0  0  0  0
    3.4938   -0.9478   -0.3857 C   0  0  0  0  0  0  0  0  0  0  0  0
    2.3947   -1.5624   -1.2124 C   0  0  0  0  0  0  0  0  0  0  0  0
    1.1205   -1.5543   -0.4677 N   0  0  0  0  0  0  0  0  0  0  0  0
    0.0727   -2.3313   -1.1571 C   0  0  0  0  0  0  0  0  0  0  0  0
   -1.1957   -1.4682   -1.2310 C   0  0  2  0  0  0  0  0  0  0  0  0
   -1.4232   -0.9723   -2.5944 N   0  0  0  0  0  0  0  0  0  0  0  0
   -0.9259   -0.3339   -0.2453 C   0  0  2  0  0  0  0  0  0  0  0  0
   -1.6681    0.9573   -0.5472 C   0  0  0  0  0  0  0  0  0  0  0  0
   -1.2244    1.7245   -1.4459 O   0  0  0  0  0  0  0  0  0  0  0  0
   -2.8952    1.3093    0.1265 N   0  0  0  0  0  0  0  0  0  0  0  0
   -3.6227    2.5285   -0.1918 C   0  0  0  0  0  0  0  0  0  0  0  0
   -4.8611    2.5187    0.6935 C   0  0  0  0  0  0  0  0  0  0  0  0
   -4.5605    1.5215    1.8070 C   0  0  0  0  0  0  0  0  0  0  0  0
   -3.4888    0.5865    1.2453 C   0  0  1  0  0  0  0  0  0  0  0  0
   -4.0890   -0.6723    0.7740 C   0  0  0  0  0  0  0  0  0  0  0  0
   -4.5635   -1.6611    0.4048 N   0  0  0  0  0  0  0  0  0  0  0  0
    0.5888   -0.1964   -0.2750 C   0  0  0  0  0  0  0  0  0  0  0  0
    4.0128   -1.6410    0.7193 C   0  0  0  0  0  0  0  0  0  0  0  0
    5.0123   -1.0635    1.5084 C   0  0  0  0  0  0  0  0  0  0  0  0
    5.3407    1.9052   -0.1343 H   0  0  0  0  0  0  0  0  0  0  0  0
    3.5790    0.8935   -1.5216 H   0  0  0  0  0  0  0  0  0  0  0  0
    2.6862   -2.6123   -1.4393 H   0  0  0  0  0  0  0  0  0  0  0  0
    2.2879   -1.0400   -2.1908 H   0  0  0  0  0  0  0  0  0  0  0  0
   -0.1385   -3.2398   -0.5532 H   0  0  0  0  0  0  0  0  0  0  0  0
    0.3829   -2.6756   -2.1709 H   0  0  0  0  0  0  0  0  0  0  0  0
   -2.0838   -2.0538   -0.9063 H   0  0  0  0  0  0  0  0  0  0  0  0
   -1.6605   -1.7865   -3.2066 H   0  0  0  0  0  0  0  0  0  0  0  0
   -0.5427   -0.5477   -2.9686 H   0  0  0  0  0  0  0  0  0  0  0  0
   -1.1900   -0.6959    0.7704 H   0  0  0  0  0  0  0  0  0  0  0  0
   -3.9101    2.5396   -1.2657 H   0  0  0  0  0  0  0  0  0  0  0  0
   -2.9890    3.4123    0.0395 H   0  0  0  0  0  0  0  0  0  0  0  0
   -5.0786    3.5298    1.1011 H   0  0  0  0  0  0  0  0  0  0  0  0
   -5.7367    2.1635    0.1064 H   0  0  0  0  0  0  0  0  0  0  0  0
   -5.4818    0.9903    2.1359 H   0  0  0  0  0  0  0  0  0  0  0  0
   -4.1440    2.0714    2.6800 H   0  0  0  0  0  0  0  0  0  0  0  0
   -2.7311    0.3782    2.0305 H   0  0  0  0  0  0  0  0  0  0  0  0
    0.9031    0.4798   -1.1028 H   0  0  0  0  0  0  0  0  0  0  0  0
    0.9591    0.2221    0.6859 H   0  0  0  0  0  0  0  0  0  0  0  0
    3.6408   -2.6269    0.9698 H   0  0  0  0  0  0  0  0  0  0  0  0
    5.4044   -1.6117    2.3567 H   0  0  0  0  0  0  0  0  0  0  0  0
  1  2  3  0
  2  3  1  0
  3  4  2  0
  4  5  1  0
  5  6  2  0
  6  7  1  0
  7  8  1  0
  8  9  1  0
  9 10  1  0
 10 11  1  0
 10 12  1  0
 12 13  1  0
 13 14  2  0
 13 15  1  0
 15 16  1  0
 16 17  1  0
 17 18  1  0
 18 19  1  0
 19 20  1  0
 20 21  3  0
 12 22  1  0
  6 23  1  0
 23 24  2  0
 24  3  1  0
 22  8  1  0
 19 15  1  0
  4 25  1  0
  5 26  1  0
  7 27  1  0
  7 28  1  0
  9 29  1  0
  9 30  1  0
 10 31  1  1
 11 32  1  0
 11 33  1  0
 12 34  1  1
 16 35  1  0
 16 36  1  0
 17 37  1  0
 17 38  1  0
 18 39  1  0
 18 40  1  0
 19 41  1  1
 22 42  1  0
 22 43  1  0
 23 44  1  0
 24 45  1  0
M  END
$$$$
