
     RDKit          3D

 53 54  0  0  0  0  0  0  0  0999 V2000
    0.6878    0.0000    0.0000 Cl  0  0  0  0  0  0  0  0  0  0  0  0
    3.4379    1.9068    1.1373 N   0  0  0  0  0  0  0  0  0  0  0  0
    2.0929    1.3545    0.9465 C   0  0  1  0  0  0  0  0  0  0  0  0
    1.1701    1.8520    2.0819 C   0  0  0  0  0  0  0  0  0  0  0  0
   -0.1622    1.1515    2.0663 C   0  0  0  0  0  0  0  0  0  0  0  0
   -1.1508    1.7459    1.5557 O   0  0  0  0  0  0  0  0  0  0  0  0
   -0.3153   -0.1958    2.5582 N   0  0  0  0  0  0  0  0  0  0  0  0
    0.6218   -0.8053    3.4940 C   0  0  0  0  0  0  0  0  0  0  0  0
    0.2380   -2.2666    3.6680 C   0  0  0  0  0  0  0  0  0  0  0  0
   -1.5315   -2.4429    3.3057 S   0  0  0  0  0  0  0  0  0  0  0  0
   -1.4814   -0.9980    2.2056 C   0  0  0  0  0  0  0  0  0  0  0  0
   -1.3840   -1.4437    0.7720 C   0  0  0  0  0  0  0  0  0  0  0  0
   -0.3373   -2.0263    0.3766 O   0  0  0  0  0  0  0  0  0  0  0  0
   -2.4409   -1.1671   -0.1619 N   0  0  0  0  0  0  0  0  0  0  0  0
   -2.1079   -0.8881   -1.5622 C   0  0  0  0  0  0  0  0  0  0  0  0
   -3.1472    0.0610   -2.1639 C   0  0  0  0  0  0  0  0  0  0  0  0
   -4.5027   -0.4626   -1.9512 N   0  0  0  0  0  0  0  0  0  0  0  0
   -4.7920   -0.5703   -0.5154 C   0  0  0  0  0  0  0  0  0  0  0  0
   -3.8227   -1.5504    0.1481 C   0  0  0  0  0  0  0  0  0  0  0  0
    1.5388    1.7713   -0.4362 C   0  0  0  0  0  0  0  0  0  0  0  0
    2.3261    1.1604   -1.5702 C   0  0  0  0  0  0  0  0  0  0  0  0
    2.1261   -0.1887   -1.9092 C   0  0  0  0  0  0  0  0  0  0  0  0
    2.8575   -0.7738   -2.9469 C   0  0  0  0  0  0  0  0  0  0  0  0
    2.6534   -2.0757   -3.2666 F   0  0  0  0  0  0  0  0  0  0  0  0
    3.7995   -0.0184   -3.6513 C   0  0  0  0  0  0  0  0  0  0  0  0
    4.5109   -0.5848   -4.6572 F   0  0  0  0  0  0  0  0  0  0  0  0
    4.0120    1.3217   -3.3162 C   0  0  0  0  0  0  0  0  0  0  0  0
    3.2824    1.9127   -2.2792 C   0  0  0  0  0  0  0  0  0  0  0  0
    3.5145    3.2125   -1.9653 F   0  0  0  0  0  0  0  0  0  0  0  0
   -0.6878    0.0000    0.0000 H   0  0  0  0  0  0  0  0  0  0  0  0
    4.0864    1.4528    0.4544 H   0  0  0  0  0  0  0  0  0  0  0  0
    3.7876    1.6147    2.0790 H   0  0  0  0  0  0  0  0  0  0  0  0
    2.1495    0.2430    0.9925 H   0  0  0  0  0  0  0  0  0  0  0  0
    1.6518    1.6877    3.0688 H   0  0  0  0  0  0  0  0  0  0  0  0
    1.0176    2.9496    1.9846 H   0  0  0  0  0  0  0  0  0  0  0  0
    0.5598   -0.2765    4.4695 H   0  0  0  0  0  0  0  0  0  0  0  0
    1.6613   -0.7444    3.1093 H   0  0  0  0  0  0  0  0  0  0  0  0
    0.8072   -2.8941    2.9491 H   0  0  0  0  0  0  0  0  0  0  0  0
    0.4545   -2.6119    4.7009 H   0  0  0  0  0  0  0  0  0  0  0  0
   -2.4022   -0.4019    2.3775 H   0  0  0  0  0  0  0  0  0  0  0  0
   -2.0916   -1.8408   -2.1347 H   0  0  0  0  0  0  0  0  0  0  0  0
   -1.1064   -0.4113   -1.6372 H   0  0  0  0  0  0  0  0  0  0  0  0
   -3.0436    1.0719   -1.7077 H   0  0  0  0  0  0  0  0  0  0  0  0
   -2.9583    0.1571   -3.2548 H   0  0  0  0  0  0  0  0  0  0  0  0
   -5.1771    0.2253   -2.3608 H   0  0  0  0  0  0  0  0  0  0  0  0
   -4.7156    0.4269   -0.0252 H   0  0  0  0  0  0  0  0  0  0  0  0
   -5.8305   -0.9413   -0.3778 H   0  0  0  0  0  0  0  0  0  0  0  0
   -4.0107   -2.5758   -0.2377 H   0  0  0  0  0  0  0  0  0  0  0  0
   -4.0087   -1.5590    1.2421 H   0  0  0  0  0  0  0  0  0  0  0  0
    1.5285    2.8801   -0.5162 H   0  0  0  0  0  0  0  0  0  0  0  0
    0.4838    1.4387   -0.5392 H   0  0  0  0  0  0  0  0  0  0  0  0
    1.4051   -0.7864   -1.3669 H   0  0  0  0  0  0  0  0  0  0  0  0
    4.7455    1.9035   -3.8596 H   0  0  0  0  0  0  0  0  0  0  0  0
  2  3  1  0
  3  4  1  0
  4  5  1  0
  5  6  2  0
  5  7  1  0
  7  8  1  0
  8  9  1  0
  9 10  1  0
 10 11  1  0
 11 12  1  0
 12 13  2  0
 12 14  1  0
 14 15  1  0
 15 16  1  0
 16 17  1  0
 17 18  1  0
 18 19  1  0
  3 20  1  0
 20 21  1  0
 21 22  2  0
 22 23  1  0
 23 24  1  0
 23 25  2  0
 25 26  1  0
 25 27  1  0
 27 28  2  0
 28 29  1  0
 11  7  1  0
 19 14  1  0
 28 21  1  0
  1 30  1  0
  2 31  1  0
  2 32  1  0
  3 33  1  6
  4 34  1  0
  4 35  1  0
  8 36  1  0
  8 37  1  0
  9 38  1  0
  9 39  1  0
 11 40  1  0
 15 41  1  0
 15 42  1  0
 16 43  1  0
 16 44  1  0
 17 45  1  0
 18 46  1  0
 18 47  1  0
 19 48  1  0
 19 49  1  0
 20 50  1  0
 20 51  1  0
 22 52  1  0
 27 53  1  0
M  END
$$$$
