
     RDKit          3D

 30 31  0  0  0  0  0  0  0  0999 V2000
    5.1877    1.2575    1.4138 F   0  0  0  0  0  0  0  0  0  0  0  0
    4.0235    0.7196    0.9732 C   0  0  0  0  0  0  0  0  0  0  0  0
    3.0974    0.2161    1.8904 C   0  0  0  0  0  0  0  0  0  0  0  0
    1.8942   -0.3402    1.4438 C   0  0  0  0  0  0  0  0  0  0  0  0
    1.0149   -0.8264    2.3564 F   0  0  0  0  0  0  0  0  0  0  0  0
    1.6084   -0.3942    0.0651 C   0  0  0  0  0  0  0  0  0  0  0  0
    0.3107   -0.9788   -0.4434 C   0  0  0  0  0  0  0  0  0  0  0  0
   -0.6654    0.1172   -0.9469 C   0  0  2  0  0  0  0  0  0  0  0  0
   -1.2300    0.9977    0.2036 C   0  0  0  0  0  0  0  0  0  0  0  0
   -2.7297    0.7765    0.4400 C   0  0  0  0  0  0  0  0  0  0  0  0
   -3.0670   -0.7124    0.3766 C   0  0  0  0  0  0  0  0  0  0  0  0
   -2.6625   -1.3289   -0.9782 C   0  0  0  0  0  0  0  0  0  0  0  0
   -1.7588   -0.4603   -1.7538 N   0  0  0  0  0  0  0  0  0  0  0  0
    2.5489    0.1119   -0.8492 C   0  0  0  0  0  0  0  0  0  0  0  0
    3.7497    0.6666   -0.3964 C   0  0  0  0  0  0  0  0  0  0  0  0
    4.6480    1.1530   -1.2883 F   0  0  0  0  0  0  0  0  0  0  0  0
    3.3125    0.2563    2.9506 H   0  0  0  0  0  0  0  0  0  0  0  0
   -0.1755   -1.5935    0.3432 H   0  0  0  0  0  0  0  0  0  0  0  0
    0.5497   -1.6717   -1.2794 H   0  0  0  0  0  0  0  0  0  0  0  0
   -0.0905    0.7891   -1.6229 H   0  0  0  0  0  0  0  0  0  0  0  0
   -1.0708    2.0712   -0.0386 H   0  0  0  0  0  0  0  0  0  0  0  0
   -0.6912    0.8061    1.1550 H   0  0  0  0  0  0  0  0  0  0  0  0
   -3.0162    1.1844    1.4335 H   0  0  0  0  0  0  0  0  0  0  0  0
   -3.3149    1.3198   -0.3346 H   0  0  0  0  0  0  0  0  0  0  0  0
   -4.1571   -0.8516    0.5436 H   0  0  0  0  0  0  0  0  0  0  0  0
   -2.5341   -1.2386    1.1990 H   0  0  0  0  0  0  0  0  0  0  0  0
   -2.1954   -2.3255   -0.8148 H   0  0  0  0  0  0  0  0  0  0  0  0
   -3.5801   -1.4970   -1.5820 H   0  0  0  0  0  0  0  0  0  0  0  0
   -1.3558   -1.0144   -2.5456 H   0  0  0  0  0  0  0  0  0  0  0  0
    2.3496    0.0761   -1.9133 H   0  0  0  0  0  0  0  0  0  0  0  0
  1  2  1  0
  2  3  2  0
  3  4  1  0
  4  5  1  0
  4  6  2  0
  6  7  1  0
  7  8  1  0
  8  9  1  0
  9 10  1  0
 10 11  1  0
 11 12  1  0
 12 13  1  0
  6 14  1  0
 14 15  2  0
 15 16  1  0
 15  2  1  0
 13  8  1  0
  3 17  1  0
  7 18  1  0
  7 19  1  0
  8 20  1  6
  9 21  1  0
  9 22  1  0
 10 23  1  0
 10 24  1  0
 11 25  1  0
 11 26  1  0
 12 27  1  0
 12 28  1  0
 13 29  1  0
 14 30  1  0
M  END
$$$$
