
     RDKit          3D

 48 50  0  0  0  0  0  0  0  0999 V2000
    3.4404    0.5305    2.6208 C   0  0  0  0  0  0  0  0  0  0  0  0
    3.6846    0.1177    1.2011 C   0  0  0  0  0  0  0  0  0  0  0  0
    4.8618   -0.4702    0.7477 C   0  0  0  0  0  0  0  0  0  0  0  0
    4.6898   -0.6194   -0.6102 C   0  0  0  0  0  0  0  0  0  0  0  0
    5.5488   -1.1500   -1.5702 C   0  0  0  0  0  0  0  0  0  0  0  0
    5.1102   -1.1692   -2.9055 C   0  0  0  0  0  0  0  0  0  0  0  0
    3.8390   -0.6600   -3.2471 C   0  0  0  0  0  0  0  0  0  0  0  0
    2.9939   -0.1269   -2.2571 C   0  0  0  0  0  0  0  0  0  0  0  0
    3.4509   -0.1237   -0.9339 C   0  0  0  0  0  0  0  0  0  0  0  0
    2.8230    0.3361    0.1711 N   0  0  0  0  0  0  0  0  0  0  0  0
    1.4790    0.9218    0.2583 C   0  0  0  0  0  0  0  0  0  0  0  0
    0.4233   -0.1494    0.6259 C   0  0  2  0  0  0  0  0  0  0  0  0
    0.1858   -1.1557   -0.5091 C   0  0  0  0  0  0  0  0  0  0  0  0
   -0.8512    0.4398    1.0885 N   0  0  0  0  0  0  0  0  0  0  0  0
   -1.4362    1.4247    0.1661 C   0  0  0  0  0  0  0  0  0  0  0  0
   -2.8446    1.7359    0.5858 C   0  0  0  0  0  0  0  0  0  0  0  0
   -3.0742    2.8310    1.1674 O   0  0  0  0  0  0  0  0  0  0  0  0
   -3.9244    0.8049    0.3722 N   0  0  0  0  0  0  0  0  0  0  0  0
   -5.2701    1.0535    0.8646 C   0  0  0  0  0  0  0  0  0  0  0  0
   -6.0986   -0.1493    0.4331 C   0  0  0  0  0  0  0  0  0  0  0  0
   -5.0901   -1.2437    0.0966 C   0  0  0  0  0  0  0  0  0  0  0  0
   -3.7856   -0.5158   -0.2281 C   0  0  1  0  0  0  0  0  0  0  0  0
   -3.6017   -0.3934   -1.6836 C   0  0  0  0  0  0  0  0  0  0  0  0
   -3.4557   -0.2968   -2.8275 N   0  0  0  0  0  0  0  0  0  0  0  0
    4.2234    0.1119    3.2879 H   0  0  0  0  0  0  0  0  0  0  0  0
    3.4626    1.6376    2.6930 H   0  0  0  0  0  0  0  0  0  0  0  0
    2.4534    0.1605    2.9645 H   0  0  0  0  0  0  0  0  0  0  0  0
    5.7310   -0.7415    1.3327 H   0  0  0  0  0  0  0  0  0  0  0  0
    6.5233   -1.5352   -1.2987 H   0  0  0  0  0  0  0  0  0  0  0  0
    5.7520   -1.5753   -3.6764 H   0  0  0  0  0  0  0  0  0  0  0  0
    3.5125   -0.6781   -4.2787 H   0  0  0  0  0  0  0  0  0  0  0  0
    2.0232    0.2643   -2.5269 H   0  0  0  0  0  0  0  0  0  0  0  0
    1.2165    1.4182   -0.6994 H   0  0  0  0  0  0  0  0  0  0  0  0
    1.4808    1.7178    1.0337 H   0  0  0  0  0  0  0  0  0  0  0  0
    0.8297   -0.7417    1.4752 H   0  0  0  0  0  0  0  0  0  0  0  0
   -0.0707   -0.6469   -1.4605 H   0  0  0  0  0  0  0  0  0  0  0  0
    1.0977   -1.7670   -0.6733 H   0  0  0  0  0  0  0  0  0  0  0  0
   -0.6385   -1.8476   -0.2368 H   0  0  0  0  0  0  0  0  0  0  0  0
   -0.6794    0.9147    2.0065 H   0  0  0  0  0  0  0  0  0  0  0  0
   -0.8402    2.3643    0.1779 H   0  0  0  0  0  0  0  0  0  0  0  0
   -1.4474    1.0493   -0.8753 H   0  0  0  0  0  0  0  0  0  0  0  0
   -5.2529    1.1333    1.9734 H   0  0  0  0  0  0  0  0  0  0  0  0
   -5.6776    1.9890    0.4238 H   0  0  0  0  0  0  0  0  0  0  0  0
   -6.7958   -0.4728    1.2361 H   0  0  0  0  0  0  0  0  0  0  0  0
   -6.6824    0.1074   -0.4782 H   0  0  0  0  0  0  0  0  0  0  0  0
   -4.9373   -1.8817    0.9951 H   0  0  0  0  0  0  0  0  0  0  0  0
   -5.4535   -1.8897   -0.7338 H   0  0  0  0  0  0  0  0  0  0  0  0
   -2.9284   -1.0630    0.2161 H   0  0  0  0  0  0  0  0  0  0  0  0
  1  2  1  0
  2  3  2  0
  3  4  1  0
  4  5  2  0
  5  6  1  0
  6  7  2  0
  7  8  1  0
  8  9  2  0
  9 10  1  0
 10 11  1  0
 11 12  1  0
 12 13  1  0
 12 14  1  0
 14 15  1  0
 15 16  1  0
 16 17  2  0
 16 18  1  0
 18 19  1  0
 19 20  1  0
 20 21  1  0
 21 22  1  0
 22 23  1  0
 23 24  3  0
 10  2  1  0
 22 18  1  0
  9  4  1  0
  1 25  1  0
  1 26  1  0
  1 27  1  0
  3 28  1  0
  5 29  1  0
  6 30  1  0
  7 31  1  0
  8 32  1  0
 11 33  1  0
 11 34  1  0
 12 35  1  1
 13 36  1  0
 13 37  1  0
 13 38  1  0
 14 39  1  0
 15 40  1  0
 15 41  1  0
 19 42  1  0
 19 43  1  0
 20 44  1  0
 20 45  1  0
 21 46  1  0
 21 47  1  0
 22 48  1  1
M  END
$$$$
