
     RDKit          3D

 55 59  0  0  0  0  0  0  0  0999 V2000
    9.0569   -0.2321   -0.5700 C   0  0  0  0  0  0  0  0  0  0  0  0
    7.8836   -0.3729   -1.3645 O   0  0  0  0  0  0  0  0  0  0  0  0
    6.5758   -0.2285   -0.8780 C   0  0  0  0  0  0  0  0  0  0  0  0
    6.2998    0.0777    0.4663 C   0  0  0  0  0  0  0  0  0  0  0  0
    4.9786    0.2106    0.9023 C   0  0  0  0  0  0  0  0  0  0  0  0
    3.9043    0.0287    0.0130 C   0  0  0  0  0  0  0  0  0  0  0  0
    2.4819    0.2132    0.5295 C   0  0  2  0  0  0  0  0  0  0  0  0
    1.4468   -0.7980    0.0274 C   0  0  0  0  0  0  0  0  0  0  0  0
    0.1788   -0.0810    0.0507 N   0  0  0  0  0  0  0  0  0  0  0  0
   -1.1248   -0.6818   -0.1006 C   0  0  0  0  0  0  0  0  0  0  0  0
   -2.2274    0.0689    0.1701 N   0  0  0  0  0  0  0  0  0  0  0  0
   -3.4998   -0.4061    0.0653 C   0  0  0  0  0  0  0  0  0  0  0  0
   -3.7075   -1.7348   -0.3570 C   0  0  0  0  0  0  0  0  0  0  0  0
   -2.5886   -2.5331   -0.6460 C   0  0  0  0  0  0  0  0  0  0  0  0
   -1.2986   -2.0148   -0.5218 C   0  0  0  0  0  0  0  0  0  0  0  0
   -0.2475   -2.8120   -0.8346 F   0  0  0  0  0  0  0  0  0  0  0  0
   -5.0203   -2.2185   -0.4907 C   0  0  0  0  0  0  0  0  0  0  0  0
   -5.2164   -3.4099   -0.8588 O   0  0  0  0  0  0  0  0  0  0  0  0
   -6.1108   -1.3660   -0.2208 C   0  0  0  0  0  0  0  0  0  0  0  0
   -7.5223   -1.8127   -0.3664 C   0  0  0  0  0  0  0  0  0  0  0  0
   -7.7956   -2.9810   -0.7532 O   0  0  0  0  0  0  0  0  0  0  0  0
   -8.5662   -0.9380   -0.0745 O   0  0  0  0  0  0  0  0  0  0  0  0
   -5.8462   -0.0497    0.1927 C   0  0  0  0  0  0  0  0  0  0  0  0
   -4.5669    0.3996    0.3663 N   0  0  0  0  0  0  0  0  0  0  0  0
   -4.3545    1.8014    0.7638 C   0  0  0  0  0  0  0  0  0  0  0  0
   -5.0778    2.2220    2.0394 C   0  0  0  0  0  0  0  0  0  0  0  0
   -3.5819    1.9742    2.0671 C   0  0  0  0  0  0  0  0  0  0  0  0
    0.3464    1.3396    0.3324 C   0  0  0  0  0  0  0  0  0  0  0  0
    1.8533    1.6022    0.2866 C   0  0  2  0  0  0  0  0  0  0  0  0
    2.2147    2.1921   -1.0071 N   0  0  0  0  0  0  0  0  0  0  0  0
    4.1905   -0.2605   -1.3367 C   0  0  0  0  0  0  0  0  0  0  0  0
    5.5125   -0.3925   -1.7704 C   0  0  0  0  0  0  0  0  0  0  0  0
    9.9488   -0.3994   -1.2078 H   0  0  0  0  0  0  0  0  0  0  0  0
    9.0574   -0.9845    0.2467 H   0  0  0  0  0  0  0  0  0  0  0  0
    9.1101    0.7929   -0.1460 H   0  0  0  0  0  0  0  0  0  0  0  0
    7.0982    0.2189    1.1818 H   0  0  0  0  0  0  0  0  0  0  0  0
    4.7953    0.4576    1.9408 H   0  0  0  0  0  0  0  0  0  0  0  0
    2.5054    0.0812    1.6368 H   0  0  0  0  0  0  0  0  0  0  0  0
    1.4109   -1.6733    0.7124 H   0  0  0  0  0  0  0  0  0  0  0  0
    1.6446   -1.1430   -1.0057 H   0  0  0  0  0  0  0  0  0  0  0  0
   -2.7082   -3.5575   -0.9774 H   0  0  0  0  0  0  0  0  0  0  0  0
   -9.5319   -1.2294   -0.1693 H   0  0  0  0  0  0  0  0  0  0  0  0
   -6.6743    0.6238    0.3814 H   0  0  0  0  0  0  0  0  0  0  0  0
   -4.2066    2.5683   -0.0259 H   0  0  0  0  0  0  0  0  0  0  0  0
   -5.6618    1.4349    2.5627 H   0  0  0  0  0  0  0  0  0  0  0  0
   -5.3538    3.2966    2.0806 H   0  0  0  0  0  0  0  0  0  0  0  0
   -3.2962    1.0384    2.5938 H   0  0  0  0  0  0  0  0  0  0  0  0
   -2.9705    2.8996    2.1183 H   0  0  0  0  0  0  0  0  0  0  0  0
   -0.2001    1.9526   -0.4181 H   0  0  0  0  0  0  0  0  0  0  0  0
   -0.0523    1.5631    1.3462 H   0  0  0  0  0  0  0  0  0  0  0  0
    2.1438    2.3074    1.0974 H   0  0  0  0  0  0  0  0  0  0  0  0
    3.2347    2.4210   -1.0106 H   0  0  0  0  0  0  0  0  0  0  0  0
    2.0190    1.5134   -1.7779 H   0  0  0  0  0  0  0  0  0  0  0  0
    3.4041   -0.3714   -2.0685 H   0  0  0  0  0  0  0  0  0  0  0  0
    5.7125   -0.6176   -2.8104 H   0  0  0  0  0  0  0  0  0  0  0  0
  1  2  1  0
  2  3  1  0
  3  4  2  0
  4  5  1  0
  5  6  2  0
  6  7  1  0
  7  8  1  0
  8  9  1  0
  9 10  1  0
 10 11  2  0
 11 12  1  0
 12 13  2  0
 13 14  1  0
 14 15  2  0
 15 16  1  0
 13 17  1  0
 17 18  2  0
 17 19  1  0
 19 20  1  0
 20 21  2  0
 20 22  1  0
 19 23  2  0
 23 24  1  0
 24 25  1  0
 25 26  1  0
 26 27  1  0
  9 28  1  0
 28 29  1  0
 29 30  1  0
  6 31  1  0
 31 32  2  0
 32  3  1  0
 29  7  1  0
 15 10  1  0
 27 25  1  0
 24 12  1  0
  1 33  1  0
  1 34  1  0
  1 35  1  0
  4 36  1  0
  5 37  1  0
  7 38  1  1
  8 39  1  0
  8 40  1  0
 14 41  1  0
 22 42  1  0
 23 43  1  0
 25 44  1  0
 26 45  1  0
 26 46  1  0
 27 47  1  0
 27 48  1  0
 28 49  1  0
 28 50  1  0
 29 51  1  1
 30 52  1  0
 30 53  1  0
 31 54  1  0
 32 55  1  0
M  END
$$$$
