
     RDKit          3D

 47 49  0  0  0  0  0  0  0  0999 V2000
   -1.9113   -0.9312   -2.6203 C   0  0  0  0  0  0  0  0  0  0  0  0
   -1.8280   -0.2215   -1.3900 O   0  0  0  0  0  0  0  0  0  0  0  0
   -2.8983    0.1717   -0.5620 C   0  0  0  0  0  0  0  0  0  0  0  0
   -4.2520   -0.0758   -0.8996 C   0  0  0  0  0  0  0  0  0  0  0  0
   -4.5986   -0.7150   -2.0887 O   0  0  0  0  0  0  0  0  0  0  0  0
   -5.2709    0.3244   -0.0342 C   0  0  0  0  0  0  0  0  0  0  0  0
   -4.9746    0.9615    1.1627 C   0  0  0  0  0  0  0  0  0  0  0  0
   -3.6476    1.2225    1.5285 C   0  0  0  0  0  0  0  0  0  0  0  0
   -3.4002    1.9093    2.8487 C   0  0  0  0  0  0  0  0  0  0  0  0
   -2.5873    0.8399    0.6576 C   0  0  0  0  0  0  0  0  0  0  0  0
   -1.1237    1.1202    1.0320 C   0  0  2  0  0  0  0  0  0  0  0  0
   -0.3544    1.9260   -0.0276 C   0  0  0  0  0  0  0  0  0  0  0  0
    0.8500    1.1759   -0.3927 N   0  0  0  0  0  0  0  0  0  0  0  0
    1.0634    0.2033    0.6810 C   0  0  2  0  0  0  0  0  0  0  0  0
    1.8617   -0.9903    0.1925 C   0  0  0  0  0  0  0  0  0  0  0  0
    1.2604   -2.0330   -0.1862 O   0  0  0  0  0  0  0  0  0  0  0  0
    3.2974   -0.9264    0.0804 N   0  0  0  0  0  0  0  0  0  0  0  0
    4.0846    0.2675    0.3503 C   0  0  0  0  0  0  0  0  0  0  0  0
    5.5324   -0.1189    0.0756 C   0  0  0  0  0  0  0  0  0  0  0  0
    5.4718   -1.4033   -0.7460 C   0  0  0  0  0  0  0  0  0  0  0  0
    4.1000   -2.0140   -0.4604 C   0  0  1  0  0  0  0  0  0  0  0  0
    4.1956   -3.1028    0.5255 C   0  0  0  0  0  0  0  0  0  0  0  0
    4.2700   -3.9585    1.3010 N   0  0  0  0  0  0  0  0  0  0  0  0
   -0.3086   -0.1485    1.2511 C   0  0  0  0  0  0  0  0  0  0  0  0
   -2.4623   -0.3310   -3.3741 H   0  0  0  0  0  0  0  0  0  0  0  0
   -0.8842   -1.1051   -3.0013 H   0  0  0  0  0  0  0  0  0  0  0  0
   -2.3937   -1.9186   -2.4631 H   0  0  0  0  0  0  0  0  0  0  0  0
   -5.5640   -0.8959   -2.3386 H   0  0  0  0  0  0  0  0  0  0  0  0
   -6.3063    0.1366   -0.2899 H   0  0  0  0  0  0  0  0  0  0  0  0
   -5.7934    1.2517    1.8099 H   0  0  0  0  0  0  0  0  0  0  0  0
   -2.7531    1.2748    3.4904 H   0  0  0  0  0  0  0  0  0  0  0  0
   -2.9179    2.8945    2.6771 H   0  0  0  0  0  0  0  0  0  0  0  0
   -4.3441    2.0905    3.4060 H   0  0  0  0  0  0  0  0  0  0  0  0
   -1.0494    1.7048    1.9710 H   0  0  0  0  0  0  0  0  0  0  0  0
   -0.0445    2.9065    0.3960 H   0  0  0  0  0  0  0  0  0  0  0  0
   -0.9676    2.1501   -0.9289 H   0  0  0  0  0  0  0  0  0  0  0  0
    0.6480    0.6635   -1.2843 H   0  0  0  0  0  0  0  0  0  0  0  0
    1.6353    0.7044    1.4922 H   0  0  0  0  0  0  0  0  0  0  0  0
    3.9676    0.5815    1.4096 H   0  0  0  0  0  0  0  0  0  0  0  0
    3.7674    1.0877   -0.3297 H   0  0  0  0  0  0  0  0  0  0  0  0
    6.0540   -0.3207    1.0371 H   0  0  0  0  0  0  0  0  0  0  0  0
    6.0711    0.6861   -0.4701 H   0  0  0  0  0  0  0  0  0  0  0  0
    5.5372   -1.1442   -1.8260 H   0  0  0  0  0  0  0  0  0  0  0  0
    6.3167   -2.0839   -0.4977 H   0  0  0  0  0  0  0  0  0  0  0  0
    3.6506   -2.4010   -1.4010 H   0  0  0  0  0  0  0  0  0  0  0  0
   -0.2375   -0.4000    2.3325 H   0  0  0  0  0  0  0  0  0  0  0  0
   -0.7616   -1.0151    0.7262 H   0  0  0  0  0  0  0  0  0  0  0  0
  1  2  1  0
  2  3  1  0
  3  4  2  0
  4  5  1  0
  4  6  1  0
  6  7  2  0
  7  8  1  0
  8  9  1  0
  8 10  2  0
 10 11  1  0
 11 12  1  0
 12 13  1  0
 13 14  1  0
 14 15  1  0
 15 16  2  0
 15 17  1  0
 17 18  1  0
 18 19  1  0
 19 20  1  0
 20 21  1  0
 21 22  1  0
 22 23  3  0
 14 24  1  0
 10  3  1  0
 24 11  1  0
 21 17  1  0
  1 25  1  0
  1 26  1  0
  1 27  1  0
  5 28  1  0
  6 29  1  0
  7 30  1  0
  9 31  1  0
  9 32  1  0
  9 33  1  0
 11 34  1  1
 12 35  1  0
 12 36  1  0
 13 37  1  0
 14 38  1  1
 18 39  1  0
 18 40  1  0
 19 41  1  0
 19 42  1  0
 20 43  1  0
 20 44  1  0
 21 45  1  6
 24 46  1  0
 24 47  1  0
M  END
$$$$
