
     RDKit          3D

 66 67  0  0  0  0  0  0  0  0999 V2000
   10.3245   -1.2055   -0.9560 C   0  0  0  0  0  0  0  0  0  0  0  0
    9.0040   -1.6753   -1.2073 O   0  0  0  0  0  0  0  0  0  0  0  0
    7.8366   -0.9987   -0.8238 C   0  0  0  0  0  0  0  0  0  0  0  0
    7.8663    0.2307   -0.1390 C   0  0  0  0  0  0  0  0  0  0  0  0
    6.6741    0.8665    0.2209 C   0  0  0  0  0  0  0  0  0  0  0  0
    5.4343    0.2932   -0.1059 C   0  0  0  0  0  0  0  0  0  0  0  0
    4.1750    0.9622    0.2896 C   0  0  0  0  0  0  0  0  0  0  0  0
    4.1571    1.6907    1.3192 O   0  0  0  0  0  0  0  0  0  0  0  0
    2.9686    0.7946   -0.4763 N   0  0  0  0  0  0  0  0  0  0  0  0
    3.0108    1.0856   -1.9158 C   0  0  0  0  0  0  0  0  0  0  0  0
    1.6994    0.5446    0.2322 C   0  0  0  0  0  0  0  0  0  0  0  0
    0.9617   -0.6701   -0.3563 C   0  0  0  0  0  0  0  0  0  0  0  0
   -0.3513   -0.9282    0.3958 C   0  0  0  0  0  0  0  0  0  0  0  0
   -1.2801    0.3165    0.3688 C   0  0  0  0  0  0  0  0  0  0  0  0
   -2.6712    0.1252    1.0955 C   0  0  2  0  0  0  0  0  0  0  0  0
   -3.0649   -1.3581    1.2944 C   0  0  0  0  0  0  0  0  0  0  0  0
   -3.8185    0.8643    0.3330 C   0  0  2  0  0  0  0  0  0  0  0  0
   -3.4794    2.2684    0.0889 N   0  0  0  0  0  0  0  0  0  0  0  0
   -5.1387    0.7839    1.0827 C   0  0  0  0  0  0  0  0  0  0  0  0
   -5.2202    1.3107    2.2264 O   0  0  0  0  0  0  0  0  0  0  0  0
   -6.2873    0.1071    0.5369 N   0  0  0  0  0  0  0  0  0  0  0  0
   -6.3575   -0.4701   -0.7957 C   0  0  0  0  0  0  0  0  0  0  0  0
   -7.7962   -0.9400   -0.9667 C   0  0  0  0  0  0  0  0  0  0  0  0
   -8.3836   -0.9967    0.4412 C   0  0  2  0  0  0  0  0  0  0  0  0
   -9.7040   -0.5792    0.4467 F   0  0  0  0  0  0  0  0  0  0  0  0
   -7.5150   -0.0785    1.2913 C   0  0  0  0  0  0  0  0  0  0  0  0
   -0.5100    1.5222    0.9699 C   0  0  0  0  0  0  0  0  0  0  0  0
    0.7997    1.7911    0.2183 C   0  0  0  0  0  0  0  0  0  0  0  0
    5.4085   -0.9409   -0.7758 C   0  0  0  0  0  0  0  0  0  0  0  0
    6.6006   -1.5761   -1.1346 C   0  0  0  0  0  0  0  0  0  0  0  0
    0.6878    0.0000    0.0000 Cl  0  0  0  0  0  0  0  0  0  0  0  0
   11.0528   -1.9343   -1.3667 H   0  0  0  0  0  0  0  0  0  0  0  0
   10.4824   -0.2257   -1.4542 H   0  0  0  0  0  0  0  0  0  0  0  0
   10.4944   -1.1106    0.1373 H   0  0  0  0  0  0  0  0  0  0  0  0
    8.8040    0.7028    0.1202 H   0  0  0  0  0  0  0  0  0  0  0  0
    6.7210    1.8132    0.7451 H   0  0  0  0  0  0  0  0  0  0  0  0
    3.4995    2.0683   -2.0856 H   0  0  0  0  0  0  0  0  0  0  0  0
    3.5817    0.3006   -2.4508 H   0  0  0  0  0  0  0  0  0  0  0  0
    1.9961    1.1319   -2.3583 H   0  0  0  0  0  0  0  0  0  0  0  0
    1.9220    0.3008    1.2972 H   0  0  0  0  0  0  0  0  0  0  0  0
    0.7319   -0.5145   -1.4315 H   0  0  0  0  0  0  0  0  0  0  0  0
    1.6113   -1.5685   -0.2737 H   0  0  0  0  0  0  0  0  0  0  0  0
   -0.8477   -1.7897   -0.0989 H   0  0  0  0  0  0  0  0  0  0  0  0
   -0.1188   -1.2087    1.4467 H   0  0  0  0  0  0  0  0  0  0  0  0
   -1.4760    0.5360   -0.7055 H   0  0  0  0  0  0  0  0  0  0  0  0
   -2.5995    0.5607    2.1178 H   0  0  0  0  0  0  0  0  0  0  0  0
   -2.3150   -1.8894    1.9155 H   0  0  0  0  0  0  0  0  0  0  0  0
   -3.1734   -1.8707    0.3148 H   0  0  0  0  0  0  0  0  0  0  0  0
   -4.0264   -1.4470    1.8412 H   0  0  0  0  0  0  0  0  0  0  0  0
   -3.9136    0.3731   -0.6574 H   0  0  0  0  0  0  0  0  0  0  0  0
   -4.2215    2.6916   -0.5153 H   0  0  0  0  0  0  0  0  0  0  0  0
   -3.4789    2.7928    0.9945 H   0  0  0  0  0  0  0  0  0  0  0  0
   -5.6582   -1.3314   -0.8674 H   0  0  0  0  0  0  0  0  0  0  0  0
   -6.1090    0.2934   -1.5646 H   0  0  0  0  0  0  0  0  0  0  0  0
   -8.3572   -0.2005   -1.5800 H   0  0  0  0  0  0  0  0  0  0  0  0
   -7.8412   -1.9336   -1.4632 H   0  0  0  0  0  0  0  0  0  0  0  0
   -8.3222   -2.0374    0.8291 H   0  0  0  0  0  0  0  0  0  0  0  0
   -8.0075    0.9063    1.4450 H   0  0  0  0  0  0  0  0  0  0  0  0
   -7.2989   -0.5503    2.2746 H   0  0  0  0  0  0  0  0  0  0  0  0
   -1.1195    2.4454    0.9272 H   0  0  0  0  0  0  0  0  0  0  0  0
   -0.2826    1.3264    2.0414 H   0  0  0  0  0  0  0  0  0  0  0  0
    0.5618    2.0959   -0.8231 H   0  0  0  0  0  0  0  0  0  0  0  0
    1.3331    2.6346    0.7078 H   0  0  0  0  0  0  0  0  0  0  0  0
    4.4673   -1.4243   -1.0059 H   0  0  0  0  0  0  0  0  0  0  0  0
    6.5641   -2.5264   -1.6520 H   0  0  0  0  0  0  0  0  0  0  0  0
   -0.6878    0.0000    0.0000 H   0  0  0  0  0  0  0  0  0  0  0  0
  1  2  1  0
  2  3  1  0
  3  4  2  0
  4  5  1  0
  5  6  2  0
  6  7  1  0
  7  8  2  0
  7  9  1  0
  9 10  1  0
  9 11  1  0
 11 12  1  0
 12 13  1  0
 13 14  1  0
 14 15  1  0
 15 16  1  0
 15 17  1  0
 17 18  1  0
 17 19  1  0
 19 20  2  0
 19 21  1  0
 21 22  1  0
 22 23  1  0
 23 24  1  0
 24 25  1  0
 24 26  1  0
 14 27  1  0
 27 28  1  0
  6 29  1  0
 29 30  2  0
 30  3  1  0
 28 11  1  0
 26 21  1  0
  1 32  1  0
  1 33  1  0
  1 34  1  0
  4 35  1  0
  5 36  1  0
 10 37  1  0
 10 38  1  0
 10 39  1  0
 11 40  1  0
 12 41  1  0
 12 42  1  0
 13 43  1  0
 13 44  1  0
 14 45  1  0
 15 46  1  1
 16 47  1  0
 16 48  1  0
 16 49  1  0
 17 50  1  6
 18 51  1  0
 18 52  1  0
 22 53  1  0
 22 54  1  0
 23 55  1  0
 23 56  1  0
 24 57  1  1
 26 58  1  0
 26 59  1  0
 27 60  1  0
 27 61  1  0
 28 62  1  0
 28 63  1  0
 29 64  1  0
 30 65  1  0
 31 66  1  0
M  END
$$$$
