
     RDKit          3D

 55 58  0  0  0  0  0  0  0  0999 V2000
   -2.4267    2.2415    0.6669 N   0  0  0  0  0  0  0  0  0  0  0  0
   -2.5902    1.1358   -0.2818 C   0  0  1  0  0  0  0  0  0  0  0  0
   -1.5557    0.0218    0.0001 C   0  0  0  0  0  0  0  0  0  0  0  0
   -1.5857   -0.4750    1.4249 C   0  0  0  0  0  0  0  0  0  0  0  0
   -2.3915   -1.3956    1.7276 O   0  0  0  0  0  0  0  0  0  0  0  0
   -0.7486    0.0954    2.4509 N   0  0  0  0  0  0  0  0  0  0  0  0
   -0.9558   -0.1829    3.8631 C   0  0  0  0  0  0  0  0  0  0  0  0
    0.1765    0.5238    4.5974 C   0  0  0  0  0  0  0  0  0  0  0  0
    0.7531    1.5260    3.6019 C   0  0  0  0  0  0  0  0  0  0  0  0
    0.3715    0.9991    2.2189 C   0  0  1  0  0  0  0  0  0  0  0  0
    1.5155    0.2533    1.5952 C   0  0  0  0  0  0  0  0  0  0  0  0
    2.2488    0.7255    0.5692 N   0  0  0  0  0  0  0  0  0  0  0  0
    3.1290   -0.2829    0.3929 C   0  0  0  0  0  0  0  0  0  0  0  0
    4.1565   -0.2763   -0.6154 N   0  0  0  0  0  0  0  0  0  0  0  0
    4.1638    0.7772   -1.6370 C   0  0  0  0  0  0  0  0  0  0  0  0
    5.5710    0.9450   -2.2179 C   0  0  0  0  0  0  0  0  0  0  0  0
    6.0967   -0.3009   -2.6306 O   0  0  0  0  0  0  0  0  0  0  0  0
    6.2886   -1.1300   -1.5015 C   0  0  0  0  0  0  0  0  0  0  0  0
    4.9475   -1.4890   -0.8548 C   0  0  0  0  0  0  0  0  0  0  0  0
    2.9413   -1.2969    1.2614 N   0  0  0  0  0  0  0  0  0  0  0  0
    1.9339   -0.9248    1.9897 O   0  0  0  0  0  0  0  0  0  0  0  0
   -4.0530    0.6265   -0.2867 C   0  0  0  0  0  0  0  0  0  0  0  0
   -4.3355   -0.2881   -1.4565 C   0  0  0  0  0  0  0  0  0  0  0  0
   -4.4260    0.2496   -2.7526 C   0  0  0  0  0  0  0  0  0  0  0  0
   -4.6704   -0.5819   -3.8496 C   0  0  0  0  0  0  0  0  0  0  0  0
   -4.7529   -0.0511   -5.0947 F   0  0  0  0  0  0  0  0  0  0  0  0
   -4.8291   -1.9578   -3.6628 C   0  0  0  0  0  0  0  0  0  0  0  0
   -5.0660   -2.7658   -4.7258 F   0  0  0  0  0  0  0  0  0  0  0  0
   -4.7463   -2.5021   -2.3786 C   0  0  0  0  0  0  0  0  0  0  0  0
   -4.5021   -1.6754   -1.2769 C   0  0  0  0  0  0  0  0  0  0  0  0
   -4.4376   -2.2304   -0.0411 F   0  0  0  0  0  0  0  0  0  0  0  0
   -2.8341    1.9733    1.5926 H   0  0  0  0  0  0  0  0  0  0  0  0
   -2.9724    3.0635    0.3193 H   0  0  0  0  0  0  0  0  0  0  0  0
   -2.3620    1.5328   -1.2967 H   0  0  0  0  0  0  0  0  0  0  0  0
   -0.5450    0.4006   -0.2523 H   0  0  0  0  0  0  0  0  0  0  0  0
   -1.7301   -0.8347   -0.6857 H   0  0  0  0  0  0  0  0  0  0  0  0
   -1.9397    0.2249    4.1815 H   0  0  0  0  0  0  0  0  0  0  0  0
   -0.9203   -1.2777    4.0529 H   0  0  0  0  0  0  0  0  0  0  0  0
    0.9608   -0.2149    4.8737 H   0  0  0  0  0  0  0  0  0  0  0  0
   -0.1890    1.0306    5.5168 H   0  0  0  0  0  0  0  0  0  0  0  0
    1.8513    1.6468    3.7360 H   0  0  0  0  0  0  0  0  0  0  0  0
    0.2685    2.5144    3.7626 H   0  0  0  0  0  0  0  0  0  0  0  0
    0.0655    1.8472    1.5697 H   0  0  0  0  0  0  0  0  0  0  0  0
    3.4562    0.5023   -2.4489 H   0  0  0  0  0  0  0  0  0  0  0  0
    3.8457    1.7492   -1.2016 H   0  0  0  0  0  0  0  0  0  0  0  0
    5.5131    1.6142   -3.1021 H   0  0  0  0  0  0  0  0  0  0  0  0
    6.2411    1.4414   -1.4788 H   0  0  0  0  0  0  0  0  0  0  0  0
    6.9640   -0.6488   -0.7571 H   0  0  0  0  0  0  0  0  0  0  0  0
    6.7861   -2.0662   -1.8314 H   0  0  0  0  0  0  0  0  0  0  0  0
    5.1495   -2.0213    0.0998 H   0  0  0  0  0  0  0  0  0  0  0  0
    4.3796   -2.1674   -1.5276 H   0  0  0  0  0  0  0  0  0  0  0  0
   -4.2917    0.1313    0.6781 H   0  0  0  0  0  0  0  0  0  0  0  0
   -4.7390    1.4985   -0.3616 H   0  0  0  0  0  0  0  0  0  0  0  0
   -4.3059    1.3142   -2.9117 H   0  0  0  0  0  0  0  0  0  0  0  0
   -4.8733   -3.5676   -2.2358 H   0  0  0  0  0  0  0  0  0  0  0  0
  1  2  1  0
  2  3  1  0
  3  4  1  0
  4  5  2  0
  4  6  1  0
  6  7  1  0
  7  8  1  0
  8  9  1  0
  9 10  1  0
 10 11  1  0
 11 12  2  0
 12 13  1  0
 13 14  1  0
 14 15  1  0
 15 16  1  0
 16 17  1  0
 17 18  1  0
 18 19  1  0
 13 20  2  0
 20 21  1  0
  2 22  1  0
 22 23  1  0
 23 24  2  0
 24 25  1  0
 25 26  1  0
 25 27  2  0
 27 28  1  0
 27 29  1  0
 29 30  2  0
 30 31  1  0
 10  6  1  0
 21 11  1  0
 30 23  1  0
 19 14  1  0
  1 32  1  0
  1 33  1  0
  2 34  1  6
  3 35  1  0
  3 36  1  0
  7 37  1  0
  7 38  1  0
  8 39  1  0
  8 40  1  0
  9 41  1  0
  9 42  1  0
 10 43  1  6
 15 44  1  0
 15 45  1  0
 16 46  1  0
 16 47  1  0
 18 48  1  0
 18 49  1  0
 19 50  1  0
 19 51  1  0
 22 52  1  0
 22 53  1  0
 24 54  1  0
 29 55  1  0
M  END
$$$$
