
     RDKit          3D

 55 57  0  0  0  0  0  0  0  0999 V2000
   -4.2281   -2.9722   -0.5682 N   0  0  0  0  0  0  0  0  0  0  0  0
   -3.4400   -1.8874    0.0256 C   0  0  2  0  0  0  0  0  0  0  0  0
   -3.8802   -0.5335   -0.5133 C   0  0  0  0  0  0  0  0  0  0  0  0
   -4.0407   -0.3880   -1.7559 O   0  0  0  0  0  0  0  0  0  0  0  0
   -4.1047    0.5942    0.3566 N   0  0  0  0  0  0  0  0  0  0  0  0
   -4.0742    0.5474    1.8101 C   0  0  0  0  0  0  0  0  0  0  0  0
   -4.2405    1.9883    2.2730 C   0  0  0  0  0  0  0  0  0  0  0  0
   -4.7839    2.7539    1.0706 C   0  0  0  0  0  0  0  0  0  0  0  0
   -4.4330    1.9155   -0.1510 C   0  0  0  0  0  0  0  0  0  0  0  0
   -1.9217   -2.1672   -0.1495 C   0  0  1  0  0  0  0  0  0  0  0  0
   -1.4237   -2.2768   -1.5989 C   0  0  0  0  0  0  0  0  0  0  0  0
   -0.0950   -1.5266   -1.6602 C   0  0  0  0  0  0  0  0  0  0  0  0
    0.3129   -1.2239   -0.2130 C   0  0  2  0  0  0  0  0  0  0  0  0
    1.1341   -2.3118    0.3536 N   0  0  0  0  0  0  0  0  0  0  0  0
    2.1540   -1.7199    1.6355 S   0  0  0  0  0  0  0  0  0  0  0  0
    1.3278   -1.0390    2.6910 O   0  0  0  0  0  0  0  0  0  0  0  0
    2.8703   -2.8789    2.2693 O   0  0  0  0  0  0  0  0  0  0  0  0
    3.3481   -0.5976    0.9866 C   0  0  0  0  0  0  0  0  0  0  0  0
    3.2299    0.7812    1.2124 C   0  0  0  0  0  0  0  0  0  0  0  0
    4.1702    1.6647    0.6743 C   0  0  0  0  0  0  0  0  0  0  0  0
    5.2378    1.1778   -0.0921 C   0  0  0  0  0  0  0  0  0  0  0  0
    6.4087    2.2931   -0.7889 S   0  0  0  0  0  0  0  0  0  0  0  0
    6.5589    3.4934    0.1035 O   0  0  0  0  0  0  0  0  0  0  0  0
    7.7447    1.6149   -0.9110 O   0  0  0  0  0  0  0  0  0  0  0  0
    5.8537    2.8121   -2.3989 C   0  0  0  0  0  0  0  0  0  0  0  0
    5.7250    1.7095   -3.2220 F   0  0  0  0  0  0  0  0  0  0  0  0
    4.6301    3.4444   -2.2853 F   0  0  0  0  0  0  0  0  0  0  0  0
    6.7728    3.6872   -2.9455 F   0  0  0  0  0  0  0  0  0  0  0  0
    5.3496   -0.1994   -0.3265 C   0  0  0  0  0  0  0  0  0  0  0  0
    4.4092   -1.0828    0.2113 C   0  0  0  0  0  0  0  0  0  0  0  0
   -1.0193   -1.1319    0.5237 C   0  0  0  0  0  0  0  0  0  0  0  0
   -5.2367   -2.8175   -0.3365 H   0  0  0  0  0  0  0  0  0  0  0  0
   -4.1435   -2.9513   -1.6101 H   0  0  0  0  0  0  0  0  0  0  0  0
   -3.6370   -1.9209    1.1172 H   0  0  0  0  0  0  0  0  0  0  0  0
   -3.1071    0.1407    2.1740 H   0  0  0  0  0  0  0  0  0  0  0  0
   -4.9151   -0.0781    2.1806 H   0  0  0  0  0  0  0  0  0  0  0  0
   -3.2495    2.4050    2.5591 H   0  0  0  0  0  0  0  0  0  0  0  0
   -4.9299    2.0578    3.1423 H   0  0  0  0  0  0  0  0  0  0  0  0
   -4.3403    3.7711    1.0046 H   0  0  0  0  0  0  0  0  0  0  0  0
   -5.8893    2.8428    1.1573 H   0  0  0  0  0  0  0  0  0  0  0  0
   -3.5510    2.3408   -0.6772 H   0  0  0  0  0  0  0  0  0  0  0  0
   -5.2990    1.8622   -0.8463 H   0  0  0  0  0  0  0  0  0  0  0  0
   -1.7122   -3.1443    0.3449 H   0  0  0  0  0  0  0  0  0  0  0  0
   -1.2699   -3.3456   -1.8657 H   0  0  0  0  0  0  0  0  0  0  0  0
   -2.1286   -1.8413   -2.3349 H   0  0  0  0  0  0  0  0  0  0  0  0
   -0.2474   -0.5644   -2.1985 H   0  0  0  0  0  0  0  0  0  0  0  0
    0.6721   -2.1059   -2.2179 H   0  0  0  0  0  0  0  0  0  0  0  0
    0.8508   -0.2498   -0.1815 H   0  0  0  0  0  0  0  0  0  0  0  0
    1.7927   -2.6729   -0.3738 H   0  0  0  0  0  0  0  0  0  0  0  0
    2.4075    1.1749    1.7954 H   0  0  0  0  0  0  0  0  0  0  0  0
    4.0615    2.7273    0.8500 H   0  0  0  0  0  0  0  0  0  0  0  0
    6.1597   -0.5889   -0.9297 H   0  0  0  0  0  0  0  0  0  0  0  0
    4.5042   -2.1439    0.0185 H   0  0  0  0  0  0  0  0  0  0  0  0
   -0.9277   -1.3353    1.6109 H   0  0  0  0  0  0  0  0  0  0  0  0
   -1.4171   -0.1037    0.3880 H   0  0  0  0  0  0  0  0  0  0  0  0
  1  2  1  0
  2  3  1  0
  3  4  2  0
  3  5  1  0
  5  6  1  0
  6  7  1  0
  7  8  1  0
  8  9  1  0
  2 10  1  0
 10 11  1  0
 11 12  1  0
 12 13  1  0
 13 14  1  0
 14 15  1  0
 15 16  2  0
 15 17  2  0
 15 18  1  0
 18 19  2  0
 19 20  1  0
 20 21  2  0
 21 22  1  0
 22 23  2  0
 22 24  2  0
 22 25  1  0
 25 26  1  0
 25 27  1  0
 25 28  1  0
 21 29  1  0
 29 30  2  0
 13 31  1  0
  9  5  1  0
 31 10  1  0
 30 18  1  0
  1 32  1  0
  1 33  1  0
  2 34  1  1
  6 35  1  0
  6 36  1  0
  7 37  1  0
  7 38  1  0
  8 39  1  0
  8 40  1  0
  9 41  1  0
  9 42  1  0
 10 43  1  1
 11 44  1  0
 11 45  1  0
 12 46  1  0
 12 47  1  0
 13 48  1  6
 14 49  1  0
 19 50  1  0
 20 51  1  0
 29 52  1  0
 30 53  1  0
 31 54  1  0
 31 55  1  0
M  END
$$$$
