
     RDKit          3D

 38 38  0  0  0  0  0  0  0  0999 V2000
   -5.1329    0.5011   -1.5199 C   0  0  0  0  0  0  0  0  0  0  0  0
   -3.9123    1.1941   -1.0700 N   0  0  0  0  0  0  0  0  0  0  0  0
   -4.2840    2.3028   -0.1756 C   0  0  0  0  0  0  0  0  0  0  0  0
   -2.9948    0.2616   -0.3783 C   0  0  0  0  0  0  0  0  0  0  0  0
   -2.1172   -0.4850   -1.3947 C   0  0  0  0  0  0  0  0  0  0  0  0
   -1.0992   -1.4044   -0.7086 C   0  0  0  0  0  0  0  0  0  0  0  0
   -0.1199   -0.6185    0.0526 N   0  0  0  0  0  0  0  0  0  0  0  0
    0.7902   -1.5069    0.7834 C   0  0  0  0  0  0  0  0  0  0  0  0
    1.7410   -0.6911    1.6205 C   0  0  0  0  0  0  0  0  0  0  0  0
    1.3534   -0.3643    2.8835 F   0  0  0  0  0  0  0  0  0  0  0  0
    2.9304   -0.2498    1.1620 C   0  0  0  0  0  0  0  0  0  0  0  0
    3.8565    0.5737    1.9902 C   0  0  0  0  0  0  0  0  0  0  0  0
    5.1347    0.6612    1.1652 C   0  0  0  0  0  0  0  0  0  0  0  0
    4.7505    0.3162   -0.2729 C   0  0  0  0  0  0  0  0  0  0  0  0
    3.4881   -0.5336   -0.1945 C   0  0  0  0  0  0  0  0  0  0  0  0
   -5.6973    0.0741   -0.6607 H   0  0  0  0  0  0  0  0  0  0  0  0
   -4.8824   -0.3144   -2.2287 H   0  0  0  0  0  0  0  0  0  0  0  0
   -5.7937    1.2076   -2.0670 H   0  0  0  0  0  0  0  0  0  0  0  0
   -4.7637    1.9253    0.7553 H   0  0  0  0  0  0  0  0  0  0  0  0
   -3.3825    2.8942    0.0936 H   0  0  0  0  0  0  0  0  0  0  0  0
   -4.9834    2.9973   -0.6896 H   0  0  0  0  0  0  0  0  0  0  0  0
   -2.3143    0.8231    0.3014 H   0  0  0  0  0  0  0  0  0  0  0  0
   -3.5561   -0.4661    0.2518 H   0  0  0  0  0  0  0  0  0  0  0  0
   -1.5827    0.2493   -2.0363 H   0  0  0  0  0  0  0  0  0  0  0  0
   -2.7541   -1.1111   -2.0536 H   0  0  0  0  0  0  0  0  0  0  0  0
   -0.5797   -2.0057   -1.4889 H   0  0  0  0  0  0  0  0  0  0  0  0
   -1.6434   -2.1043   -0.0355 H   0  0  0  0  0  0  0  0  0  0  0  0
    0.4439   -0.0618   -0.6316 H   0  0  0  0  0  0  0  0  0  0  0  0
    1.3433   -2.1736    0.0847 H   0  0  0  0  0  0  0  0  0  0  0  0
    0.2053   -2.1549    1.4725 H   0  0  0  0  0  0  0  0  0  0  0  0
    4.0569    0.0877    2.9700 H   0  0  0  0  0  0  0  0  0  0  0  0
    3.4203    1.5841    2.1469 H   0  0  0  0  0  0  0  0  0  0  0  0
    5.5872    1.6745    1.2290 H   0  0  0  0  0  0  0  0  0  0  0  0
    5.8691   -0.0866    1.5383 H   0  0  0  0  0  0  0  0  0  0  0  0
    5.5711   -0.2271   -0.7897 H   0  0  0  0  0  0  0  0  0  0  0  0
    4.5322    1.2546   -0.8294 H   0  0  0  0  0  0  0  0  0  0  0  0
    3.7410   -1.6127   -0.2781 H   0  0  0  0  0  0  0  0  0  0  0  0
    2.7784   -0.2429   -0.9975 H   0  0  0  0  0  0  0  0  0  0  0  0
  1  2  1  0
  2  3  1  0
  2  4  1  0
  4  5  1  0
  5  6  1  0
  6  7  1  0
  7  8  1  0
  8  9  1  0
  9 10  1  0
  9 11  2  3
 11 12  1  0
 12 13  1  0
 13 14  1  0
 14 15  1  0
 15 11  1  0
  1 16  1  0
  1 17  1  0
  1 18  1  0
  3 19  1  0
  3 20  1  0
  3 21  1  0
  4 22  1  0
  4 23  1  0
  5 24  1  0
  5 25  1  0
  6 26  1  0
  6 27  1  0
  7 28  1  0
  8 29  1  0
  8 30  1  0
 12 31  1  0
 12 32  1  0
 13 33  1  0
 13 34  1  0
 14 35  1  0
 14 36  1  0
 15 37  1  0
 15 38  1  0
M  END
$$$$
