
     RDKit          3D

 72 73  0  0  0  0  0  0  0  0999 V2000
    7.6155    2.4365    0.4959 C   0  0  0  0  0  0  0  0  0  0  0  0
    7.1776    0.9717    0.5708 C   0  0  1  0  0  0  0  0  0  0  0  0
    6.3341    0.6449   -0.5365 O   0  0  0  0  0  0  0  0  0  0  0  0
    4.9912    1.0289   -0.6891 C   0  0  0  0  0  0  0  0  0  0  0  0
    4.2693    1.7041    0.3148 C   0  0  0  0  0  0  0  0  0  0  0  0
    2.9330    2.0576    0.1052 C   0  0  0  0  0  0  0  0  0  0  0  0
    2.2975    1.7454   -1.1054 C   0  0  0  0  0  0  0  0  0  0  0  0
    0.8508    2.1040   -1.3096 C   0  0  0  0  0  0  0  0  0  0  0  0
    0.0009    1.2678   -0.4662 N   0  0  0  0  0  0  0  0  0  0  0  0
   -0.2259   -0.1219   -0.7408 C   0  0  0  0  0  0  0  0  0  0  0  0
    0.2788   -0.6583   -1.7653 O   0  0  0  0  0  0  0  0  0  0  0  0
   -1.0537   -0.9527    0.2051 C   0  0  2  0  0  0  0  0  0  0  0  0
   -0.1831   -1.9495    0.9747 C   0  0  0  0  0  0  0  0  0  0  0  0
   -0.9568   -3.2643    0.9739 C   0  0  0  0  0  0  0  0  0  0  0  0
   -1.9433   -3.1715   -0.1820 C   0  0  0  0  0  0  0  0  0  0  0  0
   -2.0416   -1.7563   -0.5059 N   0  0  0  0  0  0  0  0  0  0  0  0
   -3.0623   -1.1904   -1.3534 C   0  0  0  0  0  0  0  0  0  0  0  0
   -2.8783   -0.0625   -1.8846 O   0  0  0  0  0  0  0  0  0  0  0  0
   -4.3604   -1.9047   -1.6141 C   0  0  0  0  0  0  0  0  0  0  0  0
   -5.3065   -1.8983   -0.3919 C   0  0  0  0  0  0  0  0  0  0  0  0
   -6.3762   -2.8716   -0.6273 N   0  0  0  0  0  0  0  0  0  0  0  0
   -5.9150   -0.5002   -0.0981 C   0  0  0  0  0  0  0  0  0  0  0  0
   -4.9444    0.4422    0.5785 C   0  0  0  0  0  0  0  0  0  0  0  0
   -4.4793    0.1553    1.8748 C   0  0  0  0  0  0  0  0  0  0  0  0
   -3.5848    1.0184    2.5138 C   0  0  0  0  0  0  0  0  0  0  0  0
   -3.1500    2.1783    1.8694 C   0  0  0  0  0  0  0  0  0  0  0  0
   -3.6198    2.4845    0.5904 C   0  0  0  0  0  0  0  0  0  0  0  0
   -4.5222    1.6299   -0.0520 C   0  0  0  0  0  0  0  0  0  0  0  0
   -4.9704    1.9575   -1.2905 F   0  0  0  0  0  0  0  0  0  0  0  0
    3.0133    1.0651   -2.1016 C   0  0  0  0  0  0  0  0  0  0  0  0
    4.3492    0.7120   -1.8920 C   0  0  0  0  0  0  0  0  0  0  0  0
    8.3846    0.0839    0.5434 C   0  0  0  0  0  0  0  0  0  0  0  0
    8.9739   -0.1542   -0.5454 O   0  0  0  0  0  0  0  0  0  0  0  0
    8.8808   -0.4462    1.7304 O   0  0  0  0  0  0  0  0  0  0  0  0
    0.8874   -0.3416   -1.4332 O   0  0  0  0  0  0  0  0  0  0  0  0
    0.4637   -0.2080   -0.2539 C   0  0  0  0  0  0  0  0  0  0  0  0
    1.1889   -0.7408    0.8077 O   0  0  0  0  0  0  0  0  0  0  0  0
   -0.8441    0.4694   -0.0014 C   0  0  0  0  0  0  0  0  0  0  0  0
   -1.8725   -0.4343   -0.1903 F   0  0  0  0  0  0  0  0  0  0  0  0
   -1.0029    1.5307   -0.8741 F   0  0  0  0  0  0  0  0  0  0  0  0
   -0.8880    0.9439    1.2968 F   0  0  0  0  0  0  0  0  0  0  0  0
    8.1538    2.6313   -0.4565 H   0  0  0  0  0  0  0  0  0  0  0  0
    6.7355    3.1098    0.5450 H   0  0  0  0  0  0  0  0  0  0  0  0
    8.2861    2.6798    1.3479 H   0  0  0  0  0  0  0  0  0  0  0  0
    6.6413    0.7853    1.5260 H   0  0  0  0  0  0  0  0  0  0  0  0
    4.7229    1.9576    1.2617 H   0  0  0  0  0  0  0  0  0  0  0  0
    2.3903    2.5715    0.8893 H   0  0  0  0  0  0  0  0  0  0  0  0
    0.7028    3.1714   -1.0364 H   0  0  0  0  0  0  0  0  0  0  0  0
    0.5483    1.9948   -2.3740 H   0  0  0  0  0  0  0  0  0  0  0  0
   -0.4523    1.7045    0.3678 H   0  0  0  0  0  0  0  0  0  0  0  0
   -1.5855   -0.2960    0.9258 H   0  0  0  0  0  0  0  0  0  0  0  0
    0.0046   -1.5978    2.0127 H   0  0  0  0  0  0  0  0  0  0  0  0
    0.7976   -2.1107    0.4728 H   0  0  0  0  0  0  0  0  0  0  0  0
   -1.5144   -3.3641    1.9315 H   0  0  0  0  0  0  0  0  0  0  0  0
   -0.2770   -4.1359    0.8562 H   0  0  0  0  0  0  0  0  0  0  0  0
   -1.5633   -3.7262   -1.0668 H   0  0  0  0  0  0  0  0  0  0  0  0
   -2.9228   -3.5898    0.1269 H   0  0  0  0  0  0  0  0  0  0  0  0
   -4.8745   -1.4427   -2.4857 H   0  0  0  0  0  0  0  0  0  0  0  0
   -4.1327   -2.9531   -1.9032 H   0  0  0  0  0  0  0  0  0  0  0  0
   -4.7413   -2.2408    0.5009 H   0  0  0  0  0  0  0  0  0  0  0  0
   -7.0173   -2.5097   -1.3711 H   0  0  0  0  0  0  0  0  0  0  0  0
   -6.9378   -2.9781    0.2490 H   0  0  0  0  0  0  0  0  0  0  0  0
   -6.3155   -0.0637   -1.0382 H   0  0  0  0  0  0  0  0  0  0  0  0
   -6.7865   -0.6166    0.5826 H   0  0  0  0  0  0  0  0  0  0  0  0
   -4.8097   -0.7371    2.3914 H   0  0  0  0  0  0  0  0  0  0  0  0
   -3.2251    0.7853    3.5076 H   0  0  0  0  0  0  0  0  0  0  0  0
   -2.4516    2.8419    2.3625 H   0  0  0  0  0  0  0  0  0  0  0  0
   -3.2850    3.3876    0.0966 H   0  0  0  0  0  0  0  0  0  0  0  0
    2.5383    0.8044   -3.0391 H   0  0  0  0  0  0  0  0  0  0  0  0
    4.8901    0.1877   -2.6697 H   0  0  0  0  0  0  0  0  0  0  0  0
    9.7043   -1.0361    1.7317 H   0  0  0  0  0  0  0  0  0  0  0  0
    2.0676   -1.2192    0.6486 H   0  0  0  0  0  0  0  0  0  0  0  0
  1  2  1  0
  2  3  1  0
  3  4  1  0
  4  5  2  0
  5  6  1  0
  6  7  2  0
  7  8  1  0
  8  9  1  0
  9 10  1  0
 10 11  2  0
 10 12  1  0
 12 13  1  0
 13 14  1  0
 14 15  1  0
 15 16  1  0
 16 17  1  0
 17 18  2  0
 17 19  1  0
 19 20  1  0
 20 21  1  0
 20 22  1  0
 22 23  1  0
 23 24  2  0
 24 25  1  0
 25 26  2  0
 26 27  1  0
 27 28  2  0
 28 29  1  0
  7 30  1  0
 30 31  2  0
  2 32  1  0
 32 33  2  0
 32 34  1  0
 35 36  2  0
 36 37  1  0
 36 38  1  0
 38 39  1  0
 38 40  1  0
 38 41  1  0
 31  4  1  0
 16 12  1  0
 28 23  1  0
  1 42  1  0
  1 43  1  0
  1 44  1  0
  2 45  1  1
  5 46  1  0
  6 47  1  0
  8 48  1  0
  8 49  1  0
  9 50  1  0
 12 51  1  1
 13 52  1  0
 13 53  1  0
 14 54  1  0
 14 55  1  0
 15 56  1  0
 15 57  1  0
 19 58  1  0
 19 59  1  0
 20 60  1  0
 21 61  1  0
 21 62  1  0
 22 63  1  0
 22 64  1  0
 24 65  1  0
 25 66  1  0
 26 67  1  0
 27 68  1  0
 30 69  1  0
 31 70  1  0
 34 71  1  0
 37 72  1  0
M  END
$$$$
