
     RDKit          3D

 46 47  0  0  0  0  0  0  0  0999 V2000
    7.2722   -1.1831   -0.2614 C   0  0  0  0  0  0  0  0  0  0  0  0
    7.5331    0.3220   -0.3091 C   0  0  0  0  0  0  0  0  0  0  0  0
    6.6972    1.1125    0.7113 C   0  0  0  0  0  0  0  0  0  0  0  0
    5.2030    1.1489    0.3753 C   0  0  0  0  0  0  0  0  0  0  0  0
    4.5924   -0.0931    0.7166 O   0  0  0  0  0  0  0  0  0  0  0  0
    3.2352   -0.3902    0.5264 C   0  0  0  0  0  0  0  0  0  0  0  0
    2.7777   -1.6618    0.8846 C   0  0  0  0  0  0  0  0  0  0  0  0
    1.4346   -2.0084    0.7149 C   0  0  0  0  0  0  0  0  0  0  0  0
    0.5174   -1.0812    0.1896 C   0  0  0  0  0  0  0  0  0  0  0  0
   -0.9046   -1.4684    0.0105 C   0  0  0  0  0  0  0  0  0  0  0  0
   -1.1960   -2.6900   -0.1158 O   0  0  0  0  0  0  0  0  0  0  0  0
   -1.9853   -0.4558    0.0035 C   0  0  0  0  0  0  0  0  0  0  0  0
   -3.2526   -0.7671   -0.3050 C   0  0  0  0  0  0  0  0  0  0  0  0
   -4.3587    0.2246   -0.2998 C   0  0  0  0  0  0  0  0  0  0  0  0
   -4.1209    1.5837   -0.5823 C   0  0  0  0  0  0  0  0  0  0  0  0
   -5.1686    2.5088   -0.5921 C   0  0  0  0  0  0  0  0  0  0  0  0
   -4.7596    4.3396   -0.9853 Br  0  0  0  0  0  0  0  0  0  0  0  0
   -6.4810    2.0812   -0.3277 C   0  0  0  0  0  0  0  0  0  0  0  0
   -7.5576    2.9690   -0.3251 O   0  0  0  0  0  0  0  0  0  0  0  0
   -6.7277    0.7317   -0.0622 C   0  0  0  0  0  0  0  0  0  0  0  0
   -5.6777   -0.2069   -0.0488 C   0  0  0  0  0  0  0  0  0  0  0  0
   -5.9101   -1.5671    0.2198 O   0  0  0  0  0  0  0  0  0  0  0  0
   -7.1883   -2.1329    0.4912 C   0  0  0  0  0  0  0  0  0  0  0  0
    0.9818    0.1948   -0.1810 C   0  0  0  0  0  0  0  0  0  0  0  0
    2.3263    0.5389   -0.0115 C   0  0  0  0  0  0  0  0  0  0  0  0
    7.3577   -1.5621    0.7792 H   0  0  0  0  0  0  0  0  0  0  0  0
    8.0221   -1.7071   -0.8907 H   0  0  0  0  0  0  0  0  0  0  0  0
    6.2652   -1.4188   -0.6632 H   0  0  0  0  0  0  0  0  0  0  0  0
    8.6082    0.4944   -0.0850 H   0  0  0  0  0  0  0  0  0  0  0  0
    7.3417    0.7004   -1.3367 H   0  0  0  0  0  0  0  0  0  0  0  0
    6.8462    0.7007    1.7334 H   0  0  0  0  0  0  0  0  0  0  0  0
    7.0730    2.1588    0.7204 H   0  0  0  0  0  0  0  0  0  0  0  0
    4.7262    1.9607    0.9665 H   0  0  0  0  0  0  0  0  0  0  0  0
    5.0597    1.3629   -0.7064 H   0  0  0  0  0  0  0  0  0  0  0  0
    3.4684   -2.3867    1.2966 H   0  0  0  0  0  0  0  0  0  0  0  0
    1.1109   -3.0002    1.0060 H   0  0  0  0  0  0  0  0  0  0  0  0
   -1.7413    0.5539    0.3025 H   0  0  0  0  0  0  0  0  0  0  0  0
   -3.4994   -1.7966   -0.5354 H   0  0  0  0  0  0  0  0  0  0  0  0
   -3.1251    1.9314   -0.8231 H   0  0  0  0  0  0  0  0  0  0  0  0
   -7.4538    3.9587   -0.5077 H   0  0  0  0  0  0  0  0  0  0  0  0
   -7.7461    0.4249    0.1340 H   0  0  0  0  0  0  0  0  0  0  0  0
   -7.8657   -1.9797   -0.3753 H   0  0  0  0  0  0  0  0  0  0  0  0
   -7.0727   -3.2226    0.6628 H   0  0  0  0  0  0  0  0  0  0  0  0
   -7.6231   -1.6740    1.4042 H   0  0  0  0  0  0  0  0  0  0  0  0
    0.3166    0.9235   -0.6244 H   0  0  0  0  0  0  0  0  0  0  0  0
    2.6489    1.5278   -0.3071 H   0  0  0  0  0  0  0  0  0  0  0  0
  1  2  1  0
  2  3  1  0
  3  4  1  0
  4  5  1  0
  5  6  1  0
  6  7  2  0
  7  8  1  0
  8  9  2  0
  9 10  1  0
 10 11  2  0
 10 12  1  0
 12 13  2  0
 13 14  1  0
 14 15  2  0
 15 16  1  0
 16 17  1  0
 16 18  2  0
 18 19  1  0
 18 20  1  0
 20 21  2  0
 21 22  1  0
 22 23  1  0
  9 24  1  0
 24 25  2  0
 25  6  1  0
 21 14  1  0
  1 26  1  0
  1 27  1  0
  1 28  1  0
  2 29  1  0
  2 30  1  0
  3 31  1  0
  3 32  1  0
  4 33  1  0
  4 34  1  0
  7 35  1  0
  8 36  1  0
 12 37  1  0
 13 38  1  0
 15 39  1  0
 19 40  1  0
 20 41  1  0
 23 42  1  0
 23 43  1  0
 23 44  1  0
 24 45  1  0
 25 46  1  0
M  END
$$$$
