
     RDKit          3D

 42 44  0  0  0  0  0  0  0  0999 V2000
   -0.3770   -2.6200   -1.1479 C   0  0  0  0  0  0  0  0  0  0  0  0
   -0.3689   -1.0863   -1.2778 C   0  0  2  0  0  0  0  0  0  0  0  0
    1.0428   -0.5675   -1.2037 C   0  0  0  0  0  0  0  0  0  0  0  0
    1.9505   -0.9460   -0.2823 N   0  0  0  0  0  0  0  0  0  0  0  0
    3.0162   -0.1908   -0.6242 C   0  0  0  0  0  0  0  0  0  0  0  0
    4.3169   -0.2183    0.0856 C   0  0  0  0  0  0  0  0  0  0  0  0
    5.3706    0.6062   -0.3522 C   0  0  0  0  0  0  0  0  0  0  0  0
    6.6036    0.5926    0.3062 C   0  0  0  0  0  0  0  0  0  0  0  0
    6.8005   -0.2419    1.4074 C   0  0  0  0  0  0  0  0  0  0  0  0
    5.7647   -1.0650    1.8531 C   0  0  0  0  0  0  0  0  0  0  0  0
    4.5270   -1.0583    1.2005 C   0  0  0  0  0  0  0  0  0  0  0  0
    3.5438   -1.8714    1.6629 F   0  0  0  0  0  0  0  0  0  0  0  0
    2.7600    0.5988   -1.6874 N   0  0  0  0  0  0  0  0  0  0  0  0
    1.5314    0.3383   -2.0137 O   0  0  0  0  0  0  0  0  0  0  0  0
   -1.2835   -0.3463   -0.2489 C   0  0  2  0  0  0  0  0  0  0  0  0
   -1.1392   -0.8567    1.1183 N   0  0  0  0  0  0  0  0  0  0  0  0
   -2.7491   -0.3537   -0.6385 C   0  0  0  0  0  0  0  0  0  0  0  0
   -3.2012   -1.2787   -1.3670 O   0  0  0  0  0  0  0  0  0  0  0  0
   -3.6521    0.6553   -0.1480 N   0  0  0  0  0  0  0  0  0  0  0  0
   -3.2758    1.7336    0.7516 C   0  0  0  0  0  0  0  0  0  0  0  0
   -4.5792    2.4204    1.1368 C   0  0  0  0  0  0  0  0  0  0  0  0
   -5.6087    1.9722    0.1032 C   0  0  0  0  0  0  0  0  0  0  0  0
   -5.0616    0.6847   -0.4982 C   0  0  0  0  0  0  0  0  0  0  0  0
    0.0879   -2.9468   -0.1936 H   0  0  0  0  0  0  0  0  0  0  0  0
    0.2007   -3.0693   -1.9839 H   0  0  0  0  0  0  0  0  0  0  0  0
   -1.4092   -3.0209   -1.1950 H   0  0  0  0  0  0  0  0  0  0  0  0
   -0.7384   -0.8433   -2.2993 H   0  0  0  0  0  0  0  0  0  0  0  0
    5.2432    1.2624   -1.2040 H   0  0  0  0  0  0  0  0  0  0  0  0
    7.4074    1.2303   -0.0384 H   0  0  0  0  0  0  0  0  0  0  0  0
    7.7560   -0.2508    1.9158 H   0  0  0  0  0  0  0  0  0  0  0  0
    5.9217   -1.7106    2.7078 H   0  0  0  0  0  0  0  0  0  0  0  0
   -0.9661    0.7196   -0.2459 H   0  0  0  0  0  0  0  0  0  0  0  0
   -0.1297   -0.8626    1.3875 H   0  0  0  0  0  0  0  0  0  0  0  0
   -1.5013   -1.8359    1.1763 H   0  0  0  0  0  0  0  0  0  0  0  0
   -2.7693    1.3321    1.6556 H   0  0  0  0  0  0  0  0  0  0  0  0
   -2.6064    2.4459    0.2225 H   0  0  0  0  0  0  0  0  0  0  0  0
   -4.8965    2.0788    2.1468 H   0  0  0  0  0  0  0  0  0  0  0  0
   -4.4682    3.5265    1.1442 H   0  0  0  0  0  0  0  0  0  0  0  0
   -5.6972    2.7465   -0.6906 H   0  0  0  0  0  0  0  0  0  0  0  0
   -6.6054    1.8108    0.5684 H   0  0  0  0  0  0  0  0  0  0  0  0
   -5.5730   -0.1993   -0.0591 H   0  0  0  0  0  0  0  0  0  0  0  0
   -5.1877    0.6855   -1.6028 H   0  0  0  0  0  0  0  0  0  0  0  0
  1  2  1  0
  2  3  1  0
  3  4  2  0
  4  5  1  0
  5  6  1  0
  6  7  2  0
  7  8  1  0
  8  9  2  0
  9 10  1  0
 10 11  2  0
 11 12  1  0
  5 13  2  0
 13 14  1  0
  2 15  1  0
 15 16  1  0
 15 17  1  0
 17 18  2  0
 17 19  1  0
 19 20  1  0
 20 21  1  0
 21 22  1  0
 22 23  1  0
 14  3  1  0
 23 19  1  0
 11  6  1  0
  1 24  1  0
  1 25  1  0
  1 26  1  0
  2 27  1  6
  7 28  1  0
  8 29  1  0
  9 30  1  0
 10 31  1  0
 15 32  1  1
 16 33  1  0
 16 34  1  0
 20 35  1  0
 20 36  1  0
 21 37  1  0
 21 38  1  0
 22 39  1  0
 22 40  1  0
 23 41  1  0
 23 42  1  0
M  END
$$$$
