
     RDKit          3D

 52 55  0  0  0  0  0  0  0  0999 V2000
    6.7689    3.1286   -1.2336 C   0  0  0  0  0  0  0  0  0  0  0  0
    5.5742    3.2049   -0.4627 O   0  0  0  0  0  0  0  0  0  0  0  0
    4.5425    2.2552   -0.5040 C   0  0  0  0  0  0  0  0  0  0  0  0
    4.5987    1.1164   -1.3303 C   0  0  0  0  0  0  0  0  0  0  0  0
    3.5460    0.1980   -1.3363 C   0  0  0  0  0  0  0  0  0  0  0  0
    2.4282    0.4056   -0.5229 C   0  0  0  0  0  0  0  0  0  0  0  0
    1.4179   -0.4925   -0.5203 N   0  0  0  0  0  0  0  0  0  0  0  0
    0.3122   -0.3276    0.2506 C   0  0  0  0  0  0  0  0  0  0  0  0
   -0.6820   -1.3644    0.2313 N   0  0  0  0  0  0  0  0  0  0  0  0
   -0.7952   -2.2684    1.3844 C   0  0  0  0  0  0  0  0  0  0  0  0
   -0.7340   -3.7540    0.9814 C   0  0  0  0  0  0  0  0  0  0  0  0
   -1.0629   -4.0313   -0.4954 C   0  0  0  0  0  0  0  0  0  0  0  0
   -2.0280   -3.0081   -1.1062 C   0  0  1  0  0  0  0  0  0  0  0  0
   -3.3588   -3.1012   -0.4963 N   0  0  0  0  0  0  0  0  0  0  0  0
   -1.4350   -1.5880   -1.0139 C   0  0  0  0  0  0  0  0  0  0  0  0
    0.1771    0.7939    1.0422 N   0  0  0  0  0  0  0  0  0  0  0  0
   -1.0531    1.0158    1.8407 C   0  0  0  0  0  0  0  0  0  0  0  0
   -2.3012    1.0977    0.9800 C   0  0  0  0  0  0  0  0  0  0  0  0
   -3.4080    0.2942    1.3148 C   0  0  0  0  0  0  0  0  0  0  0  0
   -4.5744    0.3301    0.5485 C   0  0  0  0  0  0  0  0  0  0  0  0
   -4.6648    1.1860   -0.5478 C   0  0  0  0  0  0  0  0  0  0  0  0
   -3.5953    2.0220   -0.8713 C   0  0  0  0  0  0  0  0  0  0  0  0
   -2.4172    1.9963   -0.1106 C   0  0  0  0  0  0  0  0  0  0  0  0
   -1.3620    2.9139   -0.4639 C   0  0  0  0  0  0  0  0  0  0  0  0
   -0.5218    3.6549   -0.7547 N   0  0  0  0  0  0  0  0  0  0  0  0
    1.2092    1.7056    1.1003 C   0  0  0  0  0  0  0  0  0  0  0  0
    1.1326    2.7108    1.8620 O   0  0  0  0  0  0  0  0  0  0  0  0
    2.3562    1.5353    0.3053 C   0  0  0  0  0  0  0  0  0  0  0  0
    3.4206    2.4572    0.3100 C   0  0  0  0  0  0  0  0  0  0  0  0
    7.4052    4.0077   -1.0042 H   0  0  0  0  0  0  0  0  0  0  0  0
    7.3309    2.2060   -0.9765 H   0  0  0  0  0  0  0  0  0  0  0  0
    6.5254    3.1389   -2.3171 H   0  0  0  0  0  0  0  0  0  0  0  0
    5.4511    0.9315   -1.9696 H   0  0  0  0  0  0  0  0  0  0  0  0
    3.6020   -0.6761   -1.9735 H   0  0  0  0  0  0  0  0  0  0  0  0
    0.0129   -2.0628    2.1215 H   0  0  0  0  0  0  0  0  0  0  0  0
   -1.7499   -2.0703    1.9094 H   0  0  0  0  0  0  0  0  0  0  0  0
   -1.4413   -4.3238    1.6231 H   0  0  0  0  0  0  0  0  0  0  0  0
    0.2830   -4.1500    1.1950 H   0  0  0  0  0  0  0  0  0  0  0  0
   -0.1166   -4.0123   -1.0808 H   0  0  0  0  0  0  0  0  0  0  0  0
   -1.4877   -5.0539   -0.5959 H   0  0  0  0  0  0  0  0  0  0  0  0
   -2.1358   -3.2623   -2.1852 H   0  0  0  0  0  0  0  0  0  0  0  0
   -3.3589   -2.6658    0.4515 H   0  0  0  0  0  0  0  0  0  0  0  0
   -4.0275   -2.5471   -1.0795 H   0  0  0  0  0  0  0  0  0  0  0  0
   -2.2326   -0.8246   -1.1187 H   0  0  0  0  0  0  0  0  0  0  0  0
   -0.7477   -1.4566   -1.8789 H   0  0  0  0  0  0  0  0  0  0  0  0
   -1.0084    1.9543    2.4314 H   0  0  0  0  0  0  0  0  0  0  0  0
   -1.1382    0.2077    2.5972 H   0  0  0  0  0  0  0  0  0  0  0  0
   -3.3713   -0.3669    2.1706 H   0  0  0  0  0  0  0  0  0  0  0  0
   -5.4108   -0.3062    0.8076 H   0  0  0  0  0  0  0  0  0  0  0  0
   -5.5703    1.2120   -1.1401 H   0  0  0  0  0  0  0  0  0  0  0  0
   -3.6899    2.6967   -1.7140 H   0  0  0  0  0  0  0  0  0  0  0  0
    3.3861    3.3373    0.9407 H   0  0  0  0  0  0  0  0  0  0  0  0
  1  2  1  0
  2  3  1  0
  3  4  2  0
  4  5  1  0
  5  6  2  0
  6  7  1  0
  7  8  2  0
  8  9  1  0
  9 10  1  0
 10 11  1  0
 11 12  1  0
 12 13  1  0
 13 14  1  0
 13 15  1  0
  8 16  1  0
 16 17  1  0
 17 18  1  0
 18 19  2  0
 19 20  1  0
 20 21  2  0
 21 22  1  0
 22 23  2  0
 23 24  1  0
 24 25  3  0
 16 26  1  0
 26 27  2  0
 26 28  1  0
 28 29  2  0
 29  3  1  0
 28  6  1  0
 15  9  1  0
 23 18  1  0
  1 30  1  0
  1 31  1  0
  1 32  1  0
  4 33  1  0
  5 34  1  0
 10 35  1  0
 10 36  1  0
 11 37  1  0
 11 38  1  0
 12 39  1  0
 12 40  1  0
 13 41  1  6
 14 42  1  0
 14 43  1  0
 15 44  1  0
 15 45  1  0
 17 46  1  0
 17 47  1  0
 19 48  1  0
 20 49  1  0
 21 50  1  0
 22 51  1  0
 29 52  1  0
M  END
$$$$
