
     RDKit          3D

 77 80  0  0  0  0  0  0  0  0999 V2000
   -5.7978   -1.1011   -0.8212 N   0  0  0  0  0  0  0  0  0  0  0  0
   -4.4486   -0.7169   -0.3966 C   0  0  1  0  0  0  0  0  0  0  0  0
   -4.4642    0.6093    0.4093 C   0  0  0  0  0  0  0  0  0  0  0  0
   -4.6301    1.8540   -0.4844 C   0  0  0  0  0  0  0  0  0  0  0  0
   -5.0023    3.1138    0.3172 C   0  0  0  0  0  0  0  0  0  0  0  0
   -3.9097    3.5964    1.2819 C   0  0  0  0  0  0  0  0  0  0  0  0
   -2.7891    4.1962    0.5588 N   0  0  0  0  0  0  0  0  0  0  0  0
   -1.5424    3.5183    0.3588 C   0  0  0  0  0  0  0  0  0  0  0  0
   -1.4709    2.2669    0.4971 O   0  0  0  0  0  0  0  0  0  0  0  0
   -0.3269    4.2965   -0.0587 C   0  0  0  0  0  0  0  0  0  0  0  0
    0.8989    3.5977    0.3248 N   0  0  0  0  0  0  0  0  0  0  0  0
    1.2317    3.3290    1.6946 C   0  0  0  0  0  0  0  0  0  0  0  0
    0.6411    3.9413    2.6252 O   0  0  0  0  0  0  0  0  0  0  0  0
    2.2639    2.2927    2.0235 C   0  0  0  0  0  0  0  0  0  0  0  0
    1.8888    0.9996    1.4517 N   0  0  0  0  0  0  0  0  0  0  0  0
    2.7730   -0.1266    1.5071 C   0  0  0  0  0  0  0  0  0  0  0  0
    3.7698   -0.1065    2.2791 O   0  0  0  0  0  0  0  0  0  0  0  0
    2.5366   -1.2982    0.6333 C   0  0  0  0  0  0  0  0  0  0  0  0
    1.2402   -1.8387    0.5608 C   0  0  0  0  0  0  0  0  0  0  0  0
    0.9532   -2.9029   -0.3069 C   0  0  0  0  0  0  0  0  0  0  0  0
    1.9683   -3.4201   -1.1174 C   0  0  0  0  0  0  0  0  0  0  0  0
    3.2620   -2.9036   -1.0485 C   0  0  0  0  0  0  0  0  0  0  0  0
    3.5636   -1.8385   -0.1838 C   0  0  0  0  0  0  0  0  0  0  0  0
    4.9546   -1.2532   -0.2032 C   0  0  0  0  0  0  0  0  0  0  0  0
    4.8818    0.1248   -0.5622 O   0  0  0  0  0  0  0  0  0  0  0  0
    5.9701    1.0077   -0.5621 C   0  0  0  0  0  0  0  0  0  0  0  0
    7.2861    0.5863   -0.2872 C   0  0  0  0  0  0  0  0  0  0  0  0
    8.3357    1.5108   -0.2956 C   0  0  0  0  0  0  0  0  0  0  0  0
    8.0832    2.8562   -0.5767 C   0  0  0  0  0  0  0  0  0  0  0  0
    6.7802    3.2797   -0.8508 C   0  0  0  0  0  0  0  0  0  0  0  0
    5.7286    2.3583   -0.8442 C   0  0  0  0  0  0  0  0  0  0  0  0
   -0.3814   -3.4145   -0.4395 N   0  0  0  0  0  0  0  0  0  0  0  0
   -1.2490   -3.6811    0.6754 C   0  0  0  0  0  0  0  0  0  0  0  0
   -0.8191   -3.5722    1.8557 O   0  0  0  0  0  0  0  0  0  0  0  0
   -2.6778   -4.1137    0.4525 C   0  0  2  0  0  0  0  0  0  0  0  0
   -2.7781   -5.3564   -0.4371 C   0  0  0  0  0  0  0  0  0  0  0  0
   -3.2763   -4.8718   -1.7989 C   0  0  0  0  0  0  0  0  0  0  0  0
   -3.8300   -3.4678   -1.5814 C   0  0  0  0  0  0  0  0  0  0  0  0
   -3.4147   -3.0700   -0.2450 N   0  0  0  0  0  0  0  0  0  0  0  0
   -3.8444   -1.8546    0.4007 C   0  0  0  0  0  0  0  0  0  0  0  0
   -3.7446   -1.7561    1.6553 O   0  0  0  0  0  0  0  0  0  0  0  0
   -6.4512   -1.0689   -0.0048 H   0  0  0  0  0  0  0  0  0  0  0  0
   -6.1449   -0.4307   -1.5428 H   0  0  0  0  0  0  0  0  0  0  0  0
   -3.8130   -0.5706   -1.2978 H   0  0  0  0  0  0  0  0  0  0  0  0
   -3.5015    0.7056    0.9532 H   0  0  0  0  0  0  0  0  0  0  0  0
   -5.2736    0.5734    1.1713 H   0  0  0  0  0  0  0  0  0  0  0  0
   -3.6991    2.0306   -1.0642 H   0  0  0  0  0  0  0  0  0  0  0  0
   -5.4443    1.6842   -1.2184 H   0  0  0  0  0  0  0  0  0  0  0  0
   -5.2403    3.9346   -0.3942 H   0  0  0  0  0  0  0  0  0  0  0  0
   -5.9287    2.9111    0.8977 H   0  0  0  0  0  0  0  0  0  0  0  0
   -3.5640    2.7806    1.9504 H   0  0  0  0  0  0  0  0  0  0  0  0
   -4.3510    4.3732    1.9429 H   0  0  0  0  0  0  0  0  0  0  0  0
   -2.8826    5.1859    0.2365 H   0  0  0  0  0  0  0  0  0  0  0  0
   -0.3505    4.4252   -1.1617 H   0  0  0  0  0  0  0  0  0  0  0  0
   -0.3394    5.3042    0.4092 H   0  0  0  0  0  0  0  0  0  0  0  0
    1.5015    3.1983   -0.4300 H   0  0  0  0  0  0  0  0  0  0  0  0
    2.3663    2.1924    3.1258 H   0  0  0  0  0  0  0  0  0  0  0  0
    3.2408    2.6154    1.6035 H   0  0  0  0  0  0  0  0  0  0  0  0
    1.0125    0.9185    0.8872 H   0  0  0  0  0  0  0  0  0  0  0  0
    0.4459   -1.4123    1.1610 H   0  0  0  0  0  0  0  0  0  0  0  0
    1.7549   -4.2291   -1.8050 H   0  0  0  0  0  0  0  0  0  0  0  0
    4.0251   -3.3245   -1.6915 H   0  0  0  0  0  0  0  0  0  0  0  0
    5.4113   -1.3659    0.8028 H   0  0  0  0  0  0  0  0  0  0  0  0
    5.6037   -1.7844   -0.9331 H   0  0  0  0  0  0  0  0  0  0  0  0
    7.5075   -0.4494   -0.0692 H   0  0  0  0  0  0  0  0  0  0  0  0
    9.3456    1.1838   -0.0842 H   0  0  0  0  0  0  0  0  0  0  0  0
    8.8968    3.5700   -0.5822 H   0  0  0  0  0  0  0  0  0  0  0  0
    6.5847    4.3219   -1.0679 H   0  0  0  0  0  0  0  0  0  0  0  0
    4.7209    2.6947   -1.0541 H   0  0  0  0  0  0  0  0  0  0  0  0
   -0.6899   -3.7074   -1.3922 H   0  0  0  0  0  0  0  0  0  0  0  0
   -3.1650   -4.3294    1.4304 H   0  0  0  0  0  0  0  0  0  0  0  0
   -1.8121   -5.9002   -0.5322 H   0  0  0  0  0  0  0  0  0  0  0  0
   -3.5270   -6.0570   -0.0059 H   0  0  0  0  0  0  0  0  0  0  0  0
   -4.0595   -5.5518   -2.1998 H   0  0  0  0  0  0  0  0  0  0  0  0
   -2.4336   -4.8399   -2.5229 H   0  0  0  0  0  0  0  0  0  0  0  0
   -4.9391   -3.4884   -1.6411 H   0  0  0  0  0  0  0  0  0  0  0  0
   -3.4212   -2.7646   -2.3384 H   0  0  0  0  0  0  0  0  0  0  0  0
  1  2  1  0
  2  3  1  0
  3  4  1  0
  4  5  1  0
  5  6  1  0
  6  7  1  0
  7  8  1  0
  8  9  2  0
  8 10  1  0
 10 11  1  0
 11 12  1  0
 12 13  2  0
 12 14  1  0
 14 15  1  0
 15 16  1  0
 16 17  2  0
 16 18  1  0
 18 19  2  0
 19 20  1  0
 20 21  2  0
 21 22  1  0
 22 23  2  0
 23 24  1  0
 24 25  1  0
 25 26  1  0
 26 27  2  0
 27 28  1  0
 28 29  2  0
 29 30  1  0
 30 31  2  0
 20 32  1  0
 32 33  1  0
 33 34  2  0
 33 35  1  0
 35 36  1  0
 36 37  1  0
 37 38  1  0
 38 39  1  0
 39 40  1  0
 40 41  2  0
 40  2  1  0
 23 18  1  0
 31 26  1  0
 39 35  1  0
  1 42  1  0
  1 43  1  0
  2 44  1  6
  3 45  1  0
  3 46  1  0
  4 47  1  0
  4 48  1  0
  5 49  1  0
  5 50  1  0
  6 51  1  0
  6 52  1  0
  7 53  1  0
 10 54  1  0
 10 55  1  0
 11 56  1  0
 14 57  1  0
 14 58  1  0
 15 59  1  0
 19 60  1  0
 21 61  1  0
 22 62  1  0
 24 63  1  0
 24 64  1  0
 27 65  1  0
 28 66  1  0
 29 67  1  0
 30 68  1  0
 31 69  1  0
 32 70  1  0
 35 71  1  1
 36 72  1  0
 36 73  1  0
 37 74  1  0
 37 75  1  0
 38 76  1  0
 38 77  1  0
M  END
$$$$
