
     RDKit          3D

 44 44  0  0  0  0  0  0  0  0999 V2000
    5.0303   -1.4513    0.4982 C   0  0  0  0  0  0  0  0  0  0  0  0
    5.0906   -0.2355   -0.4194 C   0  0  0  0  0  0  0  0  0  0  0  0
    3.9191    0.5644   -0.2721 O   0  0  0  0  0  0  0  0  0  0  0  0
    2.6717    0.2089   -0.7996 C   0  0  0  0  0  0  0  0  0  0  0  0
    2.5577   -0.8127   -1.5310 O   0  0  0  0  0  0  0  0  0  0  0  0
    1.5046    1.0850   -0.5540 C   0  0  0  0  0  0  0  0  0  0  0  0
    1.7044    2.4670   -0.6299 C   0  0  0  0  0  0  0  0  0  0  0  0
    0.6656    3.3240   -0.4917 N   0  0  0  0  0  0  0  0  0  0  0  0
   -0.6082    2.9082   -0.2631 C   0  0  0  0  0  0  0  0  0  0  0  0
   -1.7003    3.9481   -0.1338 C   0  0  0  0  0  0  0  0  0  0  0  0
   -1.1696    5.3039   -0.2598 N   0  0  0  0  0  0  0  0  0  0  0  0
   -0.8743    1.5200   -0.1492 C   0  0  0  0  0  0  0  0  0  0  0  0
   -2.1746    1.0342    0.0984 C   0  0  0  0  0  0  0  0  0  0  0  0
   -2.4173   -0.3411    0.2522 C   0  0  0  0  0  0  0  0  0  0  0  0
   -3.7038   -0.8496    0.4961 O   0  0  0  0  0  0  0  0  0  0  0  0
   -4.8817   -0.0570    0.6067 C   0  0  0  0  0  0  0  0  0  0  0  0
   -1.3550   -1.2459    0.1714 C   0  0  0  0  0  0  0  0  0  0  0  0
   -1.6328   -2.6107    0.3534 O   0  0  0  0  0  0  0  0  0  0  0  0
   -0.6619   -3.6528    0.2969 C   0  0  0  0  0  0  0  0  0  0  0  0
   -1.3422   -4.9924    0.5280 C   0  0  0  0  0  0  0  0  0  0  0  0
   -0.0551   -0.7758   -0.0829 C   0  0  0  0  0  0  0  0  0  0  0  0
    0.2000    0.5981   -0.2767 C   0  0  0  0  0  0  0  0  0  0  0  0
    0.6878    0.0000    0.0000 Cl  0  0  0  0  0  0  0  0  0  0  0  0
    4.1802   -2.1075    0.2172 H   0  0  0  0  0  0  0  0  0  0  0  0
    4.9049   -1.1244    1.5521 H   0  0  0  0  0  0  0  0  0  0  0  0
    5.9727   -2.0319    0.4110 H   0  0  0  0  0  0  0  0  0  0  0  0
    5.2109   -0.5554   -1.4773 H   0  0  0  0  0  0  0  0  0  0  0  0
    5.9741    0.3773   -0.1422 H   0  0  0  0  0  0  0  0  0  0  0  0
    2.6891    2.8703   -0.8308 H   0  0  0  0  0  0  0  0  0  0  0  0
   -2.4494    3.7810   -0.9383 H   0  0  0  0  0  0  0  0  0  0  0  0
   -2.2030    3.8409    0.8534 H   0  0  0  0  0  0  0  0  0  0  0  0
   -0.6237    5.5224    0.6057 H   0  0  0  0  0  0  0  0  0  0  0  0
   -1.9810    5.9635   -0.2706 H   0  0  0  0  0  0  0  0  0  0  0  0
   -3.0039    1.7203    0.1781 H   0  0  0  0  0  0  0  0  0  0  0  0
   -5.7491   -0.7220    0.7960 H   0  0  0  0  0  0  0  0  0  0  0  0
   -5.0594    0.4975   -0.3389 H   0  0  0  0  0  0  0  0  0  0  0  0
   -4.7866    0.6524    1.4558 H   0  0  0  0  0  0  0  0  0  0  0  0
   -0.1748   -3.6606   -0.7023 H   0  0  0  0  0  0  0  0  0  0  0  0
    0.1063   -3.4955    1.0848 H   0  0  0  0  0  0  0  0  0  0  0  0
   -2.1100   -5.1679   -0.2551 H   0  0  0  0  0  0  0  0  0  0  0  0
   -1.8297   -5.0031    1.5258 H   0  0  0  0  0  0  0  0  0  0  0  0
   -0.5897   -5.8077    0.4850 H   0  0  0  0  0  0  0  0  0  0  0  0
    0.7547   -1.4866   -0.0996 H   0  0  0  0  0  0  0  0  0  0  0  0
   -0.6878    0.0000    0.0000 H   0  0  0  0  0  0  0  0  0  0  0  0
  1  2  1  0
  2  3  1  0
  3  4  1  0
  4  5  2  0
  4  6  1  0
  6  7  2  0
  7  8  1  0
  8  9  2  0
  9 10  1  0
 10 11  1  0
  9 12  1  0
 12 13  2  0
 13 14  1  0
 14 15  1  0
 15 16  1  0
 14 17  2  0
 17 18  1  0
 18 19  1  0
 19 20  1  0
 17 21  1  0
 21 22  2  0
 22  6  1  0
 22 12  1  0
  1 24  1  0
  1 25  1  0
  1 26  1  0
  2 27  1  0
  2 28  1  0
  7 29  1  0
 10 30  1  0
 10 31  1  0
 11 32  1  0
 11 33  1  0
 13 34  1  0
 16 35  1  0
 16 36  1  0
 16 37  1  0
 19 38  1  0
 19 39  1  0
 20 40  1  0
 20 41  1  0
 20 42  1  0
 21 43  1  0
 23 44  1  0
M  END
$$$$
