
     RDKit          3D

 58 61  0  0  0  0  0  0  0  0999 V2000
    5.9186   -1.2542   -1.4646 C   0  0  0  0  0  0  0  0  0  0  0  0
    5.3981   -0.6745   -0.1440 C   0  0  0  0  0  0  0  0  0  0  0  0
    5.4356   -1.7251    0.9705 C   0  0  0  0  0  0  0  0  0  0  0  0
    4.0366   -0.1283   -0.2960 N   0  0  0  0  0  0  0  0  0  0  0  0
    2.9324   -0.9858   -0.6314 C   0  0  0  0  0  0  0  0  0  0  0  0
    2.8592   -1.4942   -1.7818 O   0  0  0  0  0  0  0  0  0  0  0  0
    1.8718   -1.2879    0.3818 C   0  0  0  0  0  0  0  0  0  0  0  0
    1.2510   -0.0422    0.8466 N   0  0  0  0  0  0  0  0  0  0  0  0
   -0.0185    0.4059    0.3259 C   0  0  0  0  0  0  0  0  0  0  0  0
   -0.2083    1.6383    0.1311 O   0  0  0  0  0  0  0  0  0  0  0  0
   -1.1093   -0.5767   -0.0271 C   0  0  0  0  0  0  0  0  0  0  0  0
   -2.5352   -0.0077    0.1710 C   0  0  2  0  0  0  0  0  0  0  0  0
   -2.8038    0.2206    1.5971 N   0  0  0  0  0  0  0  0  0  0  0  0
   -3.5920   -0.9662   -0.4490 C   0  0  1  0  0  0  0  0  0  0  0  0
   -3.7960   -2.2799    0.3550 C   0  0  0  0  0  0  0  0  0  0  0  0
   -5.2360   -2.2698    0.9016 C   0  0  0  0  0  0  0  0  0  0  0  0
   -5.8529   -1.0811    0.2719 C   0  0  0  0  0  0  0  0  0  0  0  0
   -7.1871   -0.6812    0.3805 C   0  0  0  0  0  0  0  0  0  0  0  0
   -7.6042    0.4742   -0.2979 C   0  0  0  0  0  0  0  0  0  0  0  0
   -8.8949    0.8802   -0.2085 F   0  0  0  0  0  0  0  0  0  0  0  0
   -6.6872    1.2071   -1.0735 C   0  0  0  0  0  0  0  0  0  0  0  0
   -7.0932    2.3193   -1.7343 F   0  0  0  0  0  0  0  0  0  0  0  0
   -5.3511    0.7883   -1.1669 C   0  0  0  0  0  0  0  0  0  0  0  0
   -4.9525   -0.3589   -0.4718 C   0  0  0  0  0  0  0  0  0  0  0  0
    2.0680    0.8780    1.6441 C   0  0  0  0  0  0  0  0  0  0  0  0
    2.8505    1.7986    0.7428 C   0  0  0  0  0  0  0  0  0  0  0  0
    2.6481    3.1872    0.8276 C   0  0  0  0  0  0  0  0  0  0  0  0
    3.3852    4.0608    0.0261 C   0  0  0  0  0  0  0  0  0  0  0  0
    4.3342    3.5602   -0.8646 C   0  0  0  0  0  0  0  0  0  0  0  0
    4.5466    2.1839   -0.9604 C   0  0  0  0  0  0  0  0  0  0  0  0
    3.8089    1.2892   -0.1662 C   0  0  0  0  0  0  0  0  0  0  0  0
    6.9957   -1.5076   -1.3672 H   0  0  0  0  0  0  0  0  0  0  0  0
    5.3669   -2.1771   -1.7412 H   0  0  0  0  0  0  0  0  0  0  0  0
    5.8073   -0.5101   -2.2807 H   0  0  0  0  0  0  0  0  0  0  0  0
    6.0933    0.1409    0.1587 H   0  0  0  0  0  0  0  0  0  0  0  0
    5.0465   -1.2868    1.9140 H   0  0  0  0  0  0  0  0  0  0  0  0
    4.8170   -2.6084    0.7034 H   0  0  0  0  0  0  0  0  0  0  0  0
    6.4802   -2.0610    1.1437 H   0  0  0  0  0  0  0  0  0  0  0  0
    2.3322   -1.8190    1.2418 H   0  0  0  0  0  0  0  0  0  0  0  0
    1.1257   -1.9800   -0.0589 H   0  0  0  0  0  0  0  0  0  0  0  0
   -0.9665   -0.8705   -1.0893 H   0  0  0  0  0  0  0  0  0  0  0  0
   -0.9983   -1.4844    0.6021 H   0  0  0  0  0  0  0  0  0  0  0  0
   -2.5991    0.9627   -0.3722 H   0  0  0  0  0  0  0  0  0  0  0  0
   -3.7360    0.6843    1.6927 H   0  0  0  0  0  0  0  0  0  0  0  0
   -2.1120    0.9117    1.9665 H   0  0  0  0  0  0  0  0  0  0  0  0
   -3.3071   -1.2090   -1.4971 H   0  0  0  0  0  0  0  0  0  0  0  0
   -3.6635   -3.1518   -0.3227 H   0  0  0  0  0  0  0  0  0  0  0  0
   -3.0752   -2.3900    1.1928 H   0  0  0  0  0  0  0  0  0  0  0  0
   -5.2375   -2.1528    2.0067 H   0  0  0  0  0  0  0  0  0  0  0  0
   -5.7816   -3.1934    0.6110 H   0  0  0  0  0  0  0  0  0  0  0  0
   -7.8879   -1.2541    0.9741 H   0  0  0  0  0  0  0  0  0  0  0  0
   -4.6430    1.3451   -1.7670 H   0  0  0  0  0  0  0  0  0  0  0  0
    1.4141    1.4467    2.3417 H   0  0  0  0  0  0  0  0  0  0  0  0
    2.7795    0.3083    2.2811 H   0  0  0  0  0  0  0  0  0  0  0  0
    1.9204    3.5966    1.5173 H   0  0  0  0  0  0  0  0  0  0  0  0
    3.2221    5.1284    0.0982 H   0  0  0  0  0  0  0  0  0  0  0  0
    4.9048    4.2397   -1.4844 H   0  0  0  0  0  0  0  0  0  0  0  0
    5.2795    1.8132   -1.6645 H   0  0  0  0  0  0  0  0  0  0  0  0
  1  2  1  0
  2  3  1  0
  2  4  1  0
  4  5  1  0
  5  6  2  0
  5  7  1  0
  7  8  1  0
  8  9  1  0
  9 10  2  0
  9 11  1  0
 11 12  1  0
 12 13  1  0
 12 14  1  0
 14 15  1  0
 15 16  1  0
 16 17  1  0
 17 18  2  0
 18 19  1  0
 19 20  1  0
 19 21  2  0
 21 22  1  0
 21 23  1  0
 23 24  2  0
  8 25  1  0
 25 26  1  0
 26 27  2  0
 27 28  1  0
 28 29  2  0
 29 30  1  0
 30 31  2  0
 31  4  1  0
 24 14  1  0
 31 26  1  0
 24 17  1  0
  1 32  1  0
  1 33  1  0
  1 34  1  0
  2 35  1  0
  3 36  1  0
  3 37  1  0
  3 38  1  0
  7 39  1  0
  7 40  1  0
 11 41  1  0
 11 42  1  0
 12 43  1  6
 13 44  1  0
 13 45  1  0
 14 46  1  6
 15 47  1  0
 15 48  1  0
 16 49  1  0
 16 50  1  0
 18 51  1  0
 23 52  1  0
 25 53  1  0
 25 54  1  0
 27 55  1  0
 28 56  1  0
 29 57  1  0
 30 58  1  0
M  END
$$$$
