
     RDKit          3D

 35 37  0  0  0  0  0  0  0  0999 V2000
   -4.5805    1.1293    0.5182 C   0  0  0  0  0  0  0  0  0  0  0  0
   -3.5645    0.2172   -0.1194 C   0  0  0  0  0  0  0  0  0  0  0  0
   -3.9946   -0.7040   -1.0889 C   0  0  0  0  0  0  0  0  0  0  0  0
   -3.0859   -1.5619   -1.7059 C   0  0  0  0  0  0  0  0  0  0  0  0
   -1.7358   -1.5101   -1.3688 C   0  0  0  0  0  0  0  0  0  0  0  0
   -1.2802   -0.6083   -0.3992 C   0  0  0  0  0  0  0  0  0  0  0  0
    0.1252   -0.5635   -0.0995 N   0  0  0  0  0  0  0  0  0  0  0  0
    0.7226   -1.5997    0.6977 C   0  0  0  0  0  0  0  0  0  0  0  0
    0.0426   -2.6058    1.0384 O   0  0  0  0  0  0  0  0  0  0  0  0
    2.1289   -1.4724    1.2103 C   0  0  0  0  0  0  0  0  0  0  0  0
    2.9731   -0.4886    0.4370 C   0  0  0  0  0  0  0  0  0  0  0  0
    4.3631   -0.4899    0.6416 C   0  0  0  0  0  0  0  0  0  0  0  0
    5.1765    0.4431   -0.0047 C   0  0  0  0  0  0  0  0  0  0  0  0
    4.6104    1.3952   -0.8524 C   0  0  0  0  0  0  0  0  0  0  0  0
    3.2292    1.4172   -1.0572 C   0  0  0  0  0  0  0  0  0  0  0  0
    2.3993    0.4797   -0.4150 C   0  0  0  0  0  0  0  0  0  0  0  0
    0.9410    0.4859   -0.6434 C   0  0  0  0  0  0  0  0  0  0  0  0
    0.4129    1.4007   -1.3346 O   0  0  0  0  0  0  0  0  0  0  0  0
   -2.1972    0.2465    0.2602 C   0  0  0  0  0  0  0  0  0  0  0  0
   -1.7112    1.2131    1.3160 C   0  0  0  0  0  0  0  0  0  0  0  0
   -4.7769    0.7988    1.5596 H   0  0  0  0  0  0  0  0  0  0  0  0
   -5.5419    1.1215   -0.0383 H   0  0  0  0  0  0  0  0  0  0  0  0
   -4.2076    2.1750    0.5252 H   0  0  0  0  0  0  0  0  0  0  0  0
   -5.0382   -0.7567   -1.3739 H   0  0  0  0  0  0  0  0  0  0  0  0
   -3.4286   -2.2636   -2.4554 H   0  0  0  0  0  0  0  0  0  0  0  0
   -1.0362   -2.1692   -1.8677 H   0  0  0  0  0  0  0  0  0  0  0  0
    2.0867   -1.1461    2.2711 H   0  0  0  0  0  0  0  0  0  0  0  0
    2.6110   -2.4738    1.1755 H   0  0  0  0  0  0  0  0  0  0  0  0
    4.8168   -1.2130    1.3085 H   0  0  0  0  0  0  0  0  0  0  0  0
    6.2467    0.4316    0.1570 H   0  0  0  0  0  0  0  0  0  0  0  0
    5.2426    2.1187   -1.3508 H   0  0  0  0  0  0  0  0  0  0  0  0
    2.8120    2.1642   -1.7209 H   0  0  0  0  0  0  0  0  0  0  0  0
   -0.7518    0.8860    1.7670 H   0  0  0  0  0  0  0  0  0  0  0  0
   -1.5707    2.2163    0.8626 H   0  0  0  0  0  0  0  0  0  0  0  0
   -2.4391    1.2867    2.1501 H   0  0  0  0  0  0  0  0  0  0  0  0
  1  2  1  0
  2  3  2  0
  3  4  1  0
  4  5  2  0
  5  6  1  0
  6  7  1  0
  7  8  1  0
  8  9  2  0
  8 10  1  0
 10 11  1  0
 11 12  2  0
 12 13  1  0
 13 14  2  0
 14 15  1  0
 15 16  2  0
 16 17  1  0
 17 18  2  0
  6 19  2  0
 19 20  1  0
 19  2  1  0
 17  7  1  0
 16 11  1  0
  1 21  1  0
  1 22  1  0
  1 23  1  0
  3 24  1  0
  4 25  1  0
  5 26  1  0
 10 27  1  0
 10 28  1  0
 12 29  1  0
 13 30  1  0
 14 31  1  0
 15 32  1  0
 20 33  1  0
 20 34  1  0
 20 35  1  0
M  END
$$$$
