
     RDKit          3D

 62 63  0  0  0  0  0  0  0  0999 V2000
   -1.7661    3.8547   -0.9596 C   0  0  0  0  0  0  0  0  0  0  0  0
   -1.4367    2.4258   -0.9955 N   0  0  0  0  0  0  0  0  0  0  0  0
   -1.3728    1.7261   -2.2837 C   0  0  0  0  0  0  0  0  0  0  0  0
   -1.1792    1.7390    0.2516 C   0  0  0  0  0  0  0  0  0  0  0  0
   -1.1960    2.3957    1.3301 O   0  0  0  0  0  0  0  0  0  0  0  0
   -0.8461    0.2558    0.3075 C   0  0  1  0  0  0  0  0  0  0  0  0
    0.6602    0.0660    0.3341 C   0  0  0  0  0  0  0  0  0  0  0  0
    1.2969   -0.6509   -0.6930 C   0  0  0  0  0  0  0  0  0  0  0  0
    2.6810   -0.8405   -0.6756 C   0  0  0  0  0  0  0  0  0  0  0  0
    3.4609   -0.3188    0.3709 C   0  0  0  0  0  0  0  0  0  0  0  0
    4.9324   -0.5202    0.3893 C   0  0  0  0  0  0  0  0  0  0  0  0
    5.4903   -1.7568    0.0137 C   0  0  0  0  0  0  0  0  0  0  0  0
    6.8757   -1.9439    0.0325 C   0  0  0  0  0  0  0  0  0  0  0  0
    7.7194   -0.9018    0.4244 C   0  0  0  0  0  0  0  0  0  0  0  0
    9.0624   -1.0884    0.4404 F   0  0  0  0  0  0  0  0  0  0  0  0
    7.1780    0.3311    0.7991 C   0  0  0  0  0  0  0  0  0  0  0  0
    7.9955    1.3455    1.1754 F   0  0  0  0  0  0  0  0  0  0  0  0
    5.7926    0.5226    0.7828 C   0  0  0  0  0  0  0  0  0  0  0  0
    2.8243    0.3953    1.4006 C   0  0  0  0  0  0  0  0  0  0  0  0
    1.4401    0.5841    1.3838 C   0  0  0  0  0  0  0  0  0  0  0  0
   -1.5377   -0.4556    1.5090 C   0  0  2  0  0  0  0  0  0  0  0  0
   -1.2300   -1.8895    1.5599 N   0  0  0  0  0  0  0  0  0  0  0  0
   -3.0373   -0.2474    1.4905 C   0  0  0  0  0  0  0  0  0  0  0  0
   -3.5745    0.3395    2.4690 O   0  0  0  0  0  0  0  0  0  0  0  0
   -3.8545   -0.6205    0.3659 N   0  0  0  0  0  0  0  0  0  0  0  0
   -3.7005   -1.8432   -0.4060 C   0  0  0  0  0  0  0  0  0  0  0  0
   -4.9714   -1.9649   -1.2368 C   0  0  0  0  0  0  0  0  0  0  0  0
   -5.6015   -0.5746   -1.2338 C   0  0  2  0  0  0  0  0  0  0  0  0
   -5.2065    0.1187   -2.3666 F   0  0  0  0  0  0  0  0  0  0  0  0
   -5.0548    0.1150    0.0089 C   0  0  0  0  0  0  0  0  0  0  0  0
    0.7458    0.0359   -1.5495 O   0  0  0  0  0  0  0  0  0  0  0  0
    0.4689    0.0217   -0.3202 C   0  0  0  0  0  0  0  0  0  0  0  0
    1.4926   -0.0422    0.6204 O   0  0  0  0  0  0  0  0  0  0  0  0
   -0.9576    0.0135    0.1249 C   0  0  0  0  0  0  0  0  0  0  0  0
   -1.4446   -1.2791    0.0795 F   0  0  0  0  0  0  0  0  0  0  0  0
   -1.7169    0.8169   -0.7064 F   0  0  0  0  0  0  0  0  0  0  0  0
   -1.0516    0.4899    1.4198 F   0  0  0  0  0  0  0  0  0  0  0  0
   -2.6766    4.0129   -0.3436 H   0  0  0  0  0  0  0  0  0  0  0  0
   -0.9210    4.4225   -0.5160 H   0  0  0  0  0  0  0  0  0  0  0  0
   -1.9632    4.2610   -1.9737 H   0  0  0  0  0  0  0  0  0  0  0  0
   -2.1816    0.9674   -2.3405 H   0  0  0  0  0  0  0  0  0  0  0  0
   -1.5021    2.4233   -3.1377 H   0  0  0  0  0  0  0  0  0  0  0  0
   -0.3840    1.2352   -2.3988 H   0  0  0  0  0  0  0  0  0  0  0  0
   -1.2431   -0.2236   -0.6054 H   0  0  0  0  0  0  0  0  0  0  0  0
    0.7228   -1.0646   -1.5128 H   0  0  0  0  0  0  0  0  0  0  0  0
    3.1436   -1.3818   -1.4913 H   0  0  0  0  0  0  0  0  0  0  0  0
    4.8551   -2.5841   -0.2770 H   0  0  0  0  0  0  0  0  0  0  0  0
    7.2943   -2.9001   -0.2542 H   0  0  0  0  0  0  0  0  0  0  0  0
    5.3943    1.4905    1.0604 H   0  0  0  0  0  0  0  0  0  0  0  0
    3.3950    0.7925    2.2306 H   0  0  0  0  0  0  0  0  0  0  0  0
    0.9788    1.1317    2.1950 H   0  0  0  0  0  0  0  0  0  0  0  0
   -1.1560    0.0034    2.4501 H   0  0  0  0  0  0  0  0  0  0  0  0
   -1.1688   -2.2832    0.5939 H   0  0  0  0  0  0  0  0  0  0  0  0
   -0.2840   -2.0131    1.9890 H   0  0  0  0  0  0  0  0  0  0  0  0
   -3.5969   -2.7201    0.2689 H   0  0  0  0  0  0  0  0  0  0  0  0
   -2.8212   -1.7676   -1.0775 H   0  0  0  0  0  0  0  0  0  0  0  0
   -5.6661   -2.6846   -0.7502 H   0  0  0  0  0  0  0  0  0  0  0  0
   -4.7521   -2.3151   -2.2690 H   0  0  0  0  0  0  0  0  0  0  0  0
   -6.7112   -0.6337   -1.2088 H   0  0  0  0  0  0  0  0  0  0  0  0
   -4.8083    1.1793   -0.1987 H   0  0  0  0  0  0  0  0  0  0  0  0
   -5.7918    0.0543    0.8391 H   0  0  0  0  0  0  0  0  0  0  0  0
    2.4635   -0.0565    0.3315 H   0  0  0  0  0  0  0  0  0  0  0  0
  1  2  1  0
  2  3  1  0
  2  4  1  0
  4  5  2  0
  4  6  1  0
  6  7  1  0
  7  8  2  0
  8  9  1  0
  9 10  2  0
 10 11  1  0
 11 12  2  0
 12 13  1  0
 13 14  2  0
 14 15  1  0
 14 16  1  0
 16 17  1  0
 16 18  2  0
 10 19  1  0
 19 20  2  0
  6 21  1  0
 21 22  1  0
 21 23  1  0
 23 24  2  0
 23 25  1  0
 25 26  1  0
 26 27  1  0
 27 28  1  0
 28 29  1  0
 28 30  1  0
 31 32  2  0
 32 33  1  0
 32 34  1  0
 34 35  1  0
 34 36  1  0
 34 37  1  0
 20  7  1  0
 30 25  1  0
 18 11  1  0
  1 38  1  0
  1 39  1  0
  1 40  1  0
  3 41  1  0
  3 42  1  0
  3 43  1  0
  6 44  1  6
  8 45  1  0
  9 46  1  0
 12 47  1  0
 13 48  1  0
 18 49  1  0
 19 50  1  0
 20 51  1  0
 21 52  1  1
 22 53  1  0
 22 54  1  0
 26 55  1  0
 26 56  1  0
 27 57  1  0
 27 58  1  0
 28 59  1  1
 30 60  1  0
 30 61  1  0
 33 62  1  0
M  END
$$$$
