
     RDKit          3D

 59 63  0  0  0  0  0  0  0  0999 V2000
   -1.0847    1.3538   -1.9555 N   0  0  0  0  0  0  0  0  0  0  0  0
   -0.9504    1.5841   -0.5136 C   0  0  1  0  0  0  0  0  0  0  0  0
   -2.2570    1.1937    0.2030 C   0  0  0  0  0  0  0  0  0  0  0  0
   -2.5446   -0.3325    0.1316 C   0  0  1  0  0  0  0  0  0  0  0  0
   -3.2605   -0.6933   -1.1221 N   0  0  0  0  0  0  0  0  0  0  0  0
   -4.5855   -0.0255   -1.2555 C   0  0  0  0  0  0  0  0  0  0  0  0
   -5.4696   -1.0555   -1.8307 C   0  0  0  0  0  0  0  0  0  0  0  0
   -6.8129   -1.3064   -1.6403 C   0  0  0  0  0  0  0  0  0  0  0  0
   -6.9833   -2.6442   -1.5381 N   0  0  0  0  0  0  0  0  0  0  0  0
   -5.7890   -3.2137   -1.6352 N   0  0  0  0  0  0  0  0  0  0  0  0
   -4.8731   -2.2496   -1.8213 C   0  0  0  0  0  0  0  0  0  0  0  0
   -3.5211   -2.1557   -1.2411 C   0  0  0  0  0  0  0  0  0  0  0  0
   -1.2196   -1.1371    0.2598 C   0  0  0  0  0  0  0  0  0  0  0  0
   -0.1756   -0.3384    0.9338 N   0  0  0  0  0  0  0  0  0  0  0  0
    0.9284   -1.1879    1.4526 C   0  0  0  0  0  0  0  0  0  0  0  0
    1.8691   -1.6842    0.3793 C   0  0  0  0  0  0  0  0  0  0  0  0
    1.4575   -2.5381   -0.4515 O   0  0  0  0  0  0  0  0  0  0  0  0
    3.2075   -1.1727    0.2634 N   0  0  0  0  0  0  0  0  0  0  0  0
    3.9969   -0.6733    1.3780 C   0  0  0  0  0  0  0  0  0  0  0  0
    5.3963   -0.4475    0.8204 C   0  0  0  0  0  0  0  0  0  0  0  0
    5.2386   -0.4355   -0.6986 C   0  0  1  0  0  0  0  0  0  0  0  0
    6.3175   -1.0450   -1.3167 F   0  0  0  0  0  0  0  0  0  0  0  0
    3.9455   -1.1866   -0.9861 C   0  0  0  0  0  0  0  0  0  0  0  0
    0.2679    0.7824    0.0569 C   0  0  0  0  0  0  0  0  0  0  0  0
    1.2146    1.7260    0.7840 C   0  0  0  0  0  0  0  0  0  0  0  0
    2.3483    2.2178    0.1095 C   0  0  0  0  0  0  0  0  0  0  0  0
    3.2268    3.0988    0.7457 C   0  0  0  0  0  0  0  0  0  0  0  0
    4.3269    3.5475    0.0926 F   0  0  0  0  0  0  0  0  0  0  0  0
    2.9736    3.5154    2.0539 C   0  0  0  0  0  0  0  0  0  0  0  0
    1.8378    3.0579    2.7253 C   0  0  0  0  0  0  0  0  0  0  0  0
    0.9545    2.1746    2.0962 C   0  0  0  0  0  0  0  0  0  0  0  0
   -0.1415    1.7521    2.7741 F   0  0  0  0  0  0  0  0  0  0  0  0
   -0.2326    1.7351   -2.4278 H   0  0  0  0  0  0  0  0  0  0  0  0
   -1.8858    1.9251   -2.3112 H   0  0  0  0  0  0  0  0  0  0  0  0
   -0.8036    2.6784   -0.3538 H   0  0  0  0  0  0  0  0  0  0  0  0
   -2.1696    1.4839    1.2719 H   0  0  0  0  0  0  0  0  0  0  0  0
   -3.0958    1.8006   -0.1946 H   0  0  0  0  0  0  0  0  0  0  0  0
   -3.1868   -0.5878    1.0066 H   0  0  0  0  0  0  0  0  0  0  0  0
   -4.9946    0.2971   -0.2712 H   0  0  0  0  0  0  0  0  0  0  0  0
   -4.5120    0.8392   -1.9478 H   0  0  0  0  0  0  0  0  0  0  0  0
   -7.5836   -0.5762   -1.4329 H   0  0  0  0  0  0  0  0  0  0  0  0
   -5.6005   -4.2211   -1.4371 H   0  0  0  0  0  0  0  0  0  0  0  0
   -3.5205   -2.6650   -0.2513 H   0  0  0  0  0  0  0  0  0  0  0  0
   -2.7799   -2.6261   -1.9204 H   0  0  0  0  0  0  0  0  0  0  0  0
   -1.4330   -2.0660    0.8337 H   0  0  0  0  0  0  0  0  0  0  0  0
   -0.8635   -1.4443   -0.7492 H   0  0  0  0  0  0  0  0  0  0  0  0
    1.4816   -0.6214    2.2263 H   0  0  0  0  0  0  0  0  0  0  0  0
    0.5164   -2.0657    1.9961 H   0  0  0  0  0  0  0  0  0  0  0  0
    3.5765    0.2836    1.7491 H   0  0  0  0  0  0  0  0  0  0  0  0
    4.0187   -1.4197    2.2015 H   0  0  0  0  0  0  0  0  0  0  0  0
    6.0571   -1.2889    1.1252 H   0  0  0  0  0  0  0  0  0  0  0  0
    5.8289    0.5086    1.1878 H   0  0  0  0  0  0  0  0  0  0  0  0
    5.1498    0.6145   -1.0554 H   0  0  0  0  0  0  0  0  0  0  0  0
    3.3649   -0.6738   -1.7836 H   0  0  0  0  0  0  0  0  0  0  0  0
    4.1534   -2.2374   -1.2838 H   0  0  0  0  0  0  0  0  0  0  0  0
    0.8199    0.3494   -0.8086 H   0  0  0  0  0  0  0  0  0  0  0  0
    2.5597    1.9089   -0.9067 H   0  0  0  0  0  0  0  0  0  0  0  0
    3.6543    4.1973    2.5471 H   0  0  0  0  0  0  0  0  0  0  0  0
    1.6411    3.3903    3.7365 H   0  0  0  0  0  0  0  0  0  0  0  0
  1  2  1  0
  2  3  1  0
  3  4  1  0
  4  5  1  0
  5  6  1  0
  6  7  1  0
  7  8  1  0
  8  9  2  0
  9 10  1  0
 10 11  1  0
 11 12  1  0
  4 13  1  0
 13 14  1  0
 14 15  1  0
 15 16  1  0
 16 17  2  0
 16 18  1  0
 18 19  1  0
 19 20  1  0
 20 21  1  0
 21 22  1  0
 21 23  1  0
 14 24  1  0
 24 25  1  0
 25 26  2  0
 26 27  1  0
 27 28  1  0
 27 29  2  0
 29 30  1  0
 30 31  2  0
 31 32  1  0
 24  2  1  0
 31 25  1  0
 12  5  1  0
 23 18  1  0
 11  7  2  0
  1 33  1  0
  1 34  1  0
  2 35  1  6
  3 36  1  0
  3 37  1  0
  4 38  1  1
  6 39  1  0
  6 40  1  0
  8 41  1  0
 10 42  1  0
 12 43  1  0
 12 44  1  0
 13 45  1  0
 13 46  1  0
 15 47  1  0
 15 48  1  0
 19 49  1  0
 19 50  1  0
 20 51  1  0
 20 52  1  0
 21 53  1  6
 23 54  1  0
 23 55  1  0
 24 56  1  0
 26 57  1  0
 29 58  1  0
 30 59  1  0
M  END
$$$$
