
     RDKit          3D

 32 33  0  0  0  0  0  0  0  0999 V2000
   -2.1806    1.4717    1.3652 O   0  0  0  0  0  0  0  0  0  0  0  0
   -2.4827    1.3427   -0.0587 B   0  0  0  0  0  0  0  0  0  0  0  0
   -3.0001    2.4914   -0.7979 O   0  0  0  0  0  0  0  0  0  0  0  0
   -2.2786   -0.0668   -0.8021 C   0  0  2  0  0  0  0  0  0  0  0  0
   -3.2025   -1.1460   -0.2255 C   0  0  0  0  0  0  0  0  0  0  0  0
   -2.3432   -2.3981   -0.0937 C   0  0  0  0  0  0  0  0  0  0  0  0
   -0.9035   -1.9094   -0.0487 C   0  0  0  0  0  0  0  0  0  0  0  0
   -0.9202   -0.5699   -0.6147 N   0  0  0  0  0  0  0  0  0  0  0  0
    0.2751    0.0823   -1.0993 C   0  0  0  0  0  0  0  0  0  0  0  0
    0.1708    1.2239   -2.2821 S   0  0  0  0  0  0  0  0  0  0  0  0
    1.5929   -0.1253   -0.3841 C   0  0  2  0  0  0  0  0  0  0  0  0
    1.7674    0.8713    0.7524 C   0  0  0  0  0  0  0  0  0  0  0  0
    3.2607    1.0566    0.8354 C   0  0  0  0  0  0  0  0  0  0  0  0
    3.7477    0.8191   -0.5846 C   0  0  0  0  0  0  0  0  0  0  0  0
    2.7289    0.0437   -1.2978 N   0  0  0  0  0  0  0  0  0  0  0  0
   -1.2302    1.7484    1.3956 H   0  0  0  0  0  0  0  0  0  0  0  0
   -2.1941    2.9539   -1.1400 H   0  0  0  0  0  0  0  0  0  0  0  0
   -2.4847    0.0506   -1.8884 H   0  0  0  0  0  0  0  0  0  0  0  0
   -4.0704   -1.3291   -0.8960 H   0  0  0  0  0  0  0  0  0  0  0  0
   -3.5882   -0.8760    0.7840 H   0  0  0  0  0  0  0  0  0  0  0  0
   -2.4898   -3.0426   -0.9885 H   0  0  0  0  0  0  0  0  0  0  0  0
   -2.6031   -2.9771    0.8192 H   0  0  0  0  0  0  0  0  0  0  0  0
   -0.2531   -2.5816   -0.6502 H   0  0  0  0  0  0  0  0  0  0  0  0
   -0.5401   -1.8649    1.0009 H   0  0  0  0  0  0  0  0  0  0  0  0
    1.6317   -1.1501    0.0494 H   0  0  0  0  0  0  0  0  0  0  0  0
    1.2920    1.8483    0.5086 H   0  0  0  0  0  0  0  0  0  0  0  0
    1.3488    0.4835    1.7068 H   0  0  0  0  0  0  0  0  0  0  0  0
    3.6963    0.2915    1.5156 H   0  0  0  0  0  0  0  0  0  0  0  0
    3.5281    2.0729    1.1980 H   0  0  0  0  0  0  0  0  0  0  0  0
    3.8775    1.7940   -1.1020 H   0  0  0  0  0  0  0  0  0  0  0  0
    4.7274    0.2903   -0.5786 H   0  0  0  0  0  0  0  0  0  0  0  0
    3.1197   -0.8994   -1.5335 H   0  0  0  0  0  0  0  0  0  0  0  0
  1  2  1  0
  2  3  1  0
  2  4  1  0
  4  5  1  0
  5  6  1  0
  6  7  1  0
  7  8  1  0
  8  9  1  0
  9 10  2  0
  9 11  1  0
 11 12  1  0
 12 13  1  0
 13 14  1  0
 14 15  1  0
  8  4  1  0
 15 11  1  0
  1 16  1  0
  3 17  1  0
  4 18  1  6
  5 19  1  0
  5 20  1  0
  6 21  1  0
  6 22  1  0
  7 23  1  0
  7 24  1  0
 11 25  1  1
 12 26  1  0
 12 27  1  0
 13 28  1  0
 13 29  1  0
 14 30  1  0
 14 31  1  0
 15 32  1  0
M  END
$$$$
