
     RDKit          3D

 54 57  0  0  0  0  0  0  0  0999 V2000
   -5.1238    1.6624    0.9049 N   0  0  0  0  0  0  0  0  0  0  0  0
   -3.7999    1.3199    0.3766 C   0  0  1  0  0  0  0  0  0  0  0  0
   -2.7407    2.3210    0.8906 C   0  0  0  0  0  0  0  0  0  0  0  0
   -1.4414    2.1879    0.1356 C   0  0  0  0  0  0  0  0  0  0  0  0
   -1.3375    2.7563   -0.9854 O   0  0  0  0  0  0  0  0  0  0  0  0
   -0.3657    1.3522    0.6070 N   0  0  0  0  0  0  0  0  0  0  0  0
    0.3966    0.5800   -0.3856 C   0  0  0  0  0  0  0  0  0  0  0  0
    1.2076   -0.5342    0.2761 C   0  0  0  0  0  0  0  0  0  0  0  0
    1.9880    0.0149    1.3888 N   0  0  0  0  0  0  0  0  0  0  0  0
    3.3075   -0.4834    1.6658 C   0  0  0  0  0  0  0  0  0  0  0  0
    3.5857   -0.8947    2.8243 O   0  0  0  0  0  0  0  0  0  0  0  0
    4.3536   -0.5026    0.6287 C   0  0  0  0  0  0  0  0  0  0  0  0
    4.3390    0.2201   -0.5671 C   0  0  0  0  0  0  0  0  0  0  0  0
    5.4966    0.0194   -1.3258 C   0  0  0  0  0  0  0  0  0  0  0  0
    5.7803    0.5981   -2.5658 C   0  0  0  0  0  0  0  0  0  0  0  0
    7.0003    0.2911   -3.1924 C   0  0  0  0  0  0  0  0  0  0  0  0
    7.9186   -0.5826   -2.5775 C   0  0  0  0  0  0  0  0  0  0  0  0
    7.6253   -1.1566   -1.3306 C   0  0  0  0  0  0  0  0  0  0  0  0
    6.4094   -0.8385   -0.7304 C   0  0  0  0  0  0  0  0  0  0  0  0
    5.8073   -1.3643    0.7450 S   0  0  0  0  0  0  0  0  0  0  0  0
    1.3618    0.9394    2.3429 C   0  0  0  0  0  0  0  0  0  0  0  0
   -0.1291    1.1602    2.0463 C   0  0  0  0  0  0  0  0  0  0  0  0
   -3.4431   -0.1306    0.7637 C   0  0  0  0  0  0  0  0  0  0  0  0
   -4.4239   -1.1149    0.1760 C   0  0  0  0  0  0  0  0  0  0  0  0
   -4.2726   -1.5383   -1.1555 C   0  0  0  0  0  0  0  0  0  0  0  0
   -5.1879   -2.4305   -1.7221 C   0  0  0  0  0  0  0  0  0  0  0  0
   -5.0302   -2.8353   -3.0067 F   0  0  0  0  0  0  0  0  0  0  0  0
   -6.2655   -2.9017   -0.9663 C   0  0  0  0  0  0  0  0  0  0  0  0
   -7.1547   -3.7661   -1.5149 F   0  0  0  0  0  0  0  0  0  0  0  0
   -6.4297   -2.4785    0.3556 C   0  0  0  0  0  0  0  0  0  0  0  0
   -5.5171   -1.5861    0.9278 C   0  0  0  0  0  0  0  0  0  0  0  0
   -5.7022   -1.1823    2.2103 F   0  0  0  0  0  0  0  0  0  0  0  0
   -5.4024    2.6009    0.5363 H   0  0  0  0  0  0  0  0  0  0  0  0
   -5.0734    1.7358    1.9476 H   0  0  0  0  0  0  0  0  0  0  0  0
   -3.8415    1.3893   -0.7345 H   0  0  0  0  0  0  0  0  0  0  0  0
   -3.1157    3.3574    0.7441 H   0  0  0  0  0  0  0  0  0  0  0  0
   -2.6006    2.1881    1.9820 H   0  0  0  0  0  0  0  0  0  0  0  0
   -0.2998    0.1174   -1.1191 H   0  0  0  0  0  0  0  0  0  0  0  0
    1.0788    1.2642   -0.9338 H   0  0  0  0  0  0  0  0  0  0  0  0
    0.5172   -1.3128    0.6669 H   0  0  0  0  0  0  0  0  0  0  0  0
    1.8614   -1.0150   -0.4821 H   0  0  0  0  0  0  0  0  0  0  0  0
    3.5346    0.8776   -0.8684 H   0  0  0  0  0  0  0  0  0  0  0  0
    5.0760    1.2709   -3.0389 H   0  0  0  0  0  0  0  0  0  0  0  0
    7.2361    0.7295   -4.1534 H   0  0  0  0  0  0  0  0  0  0  0  0
    8.8556   -0.8116   -3.0682 H   0  0  0  0  0  0  0  0  0  0  0  0
    8.3258   -1.8269   -0.8496 H   0  0  0  0  0  0  0  0  0  0  0  0
    1.4602    0.5449    3.3775 H   0  0  0  0  0  0  0  0  0  0  0  0
    1.8912    1.9155    2.2914 H   0  0  0  0  0  0  0  0  0  0  0  0
   -0.7153    0.2841    2.3984 H   0  0  0  0  0  0  0  0  0  0  0  0
   -0.4523    2.0564    2.6178 H   0  0  0  0  0  0  0  0  0  0  0  0
   -2.4286   -0.3847    0.3907 H   0  0  0  0  0  0  0  0  0  0  0  0
   -3.4068   -0.2297    1.8706 H   0  0  0  0  0  0  0  0  0  0  0  0
   -3.4453   -1.1749   -1.7532 H   0  0  0  0  0  0  0  0  0  0  0  0
   -7.2675   -2.8408    0.9375 H   0  0  0  0  0  0  0  0  0  0  0  0
  1  2  1  0
  2  3  1  0
  3  4  1  0
  4  5  2  0
  4  6  1  0
  6  7  1  0
  7  8  1  0
  8  9  1  0
  9 10  1  0
 10 11  2  0
 10 12  1  0
 12 13  2  0
 13 14  1  0
 14 15  2  0
 15 16  1  0
 16 17  2  0
 17 18  1  0
 18 19  2  0
 19 20  1  0
  9 21  1  0
 21 22  1  0
  2 23  1  0
 23 24  1  0
 24 25  2  0
 25 26  1  0
 26 27  1  0
 26 28  2  0
 28 29  1  0
 28 30  1  0
 30 31  2  0
 31 32  1  0
 22  6  1  0
 31 24  1  0
 20 12  1  0
 19 14  1  0
  1 33  1  0
  1 34  1  0
  2 35  1  6
  3 36  1  0
  3 37  1  0
  7 38  1  0
  7 39  1  0
  8 40  1  0
  8 41  1  0
 13 42  1  0
 15 43  1  0
 16 44  1  0
 17 45  1  0
 18 46  1  0
 21 47  1  0
 21 48  1  0
 22 49  1  0
 22 50  1  0
 23 51  1  0
 23 52  1  0
 25 53  1  0
 30 54  1  0
M  END
$$$$
