
     RDKit          3D

 51 53  0  0  0  0  0  0  0  0999 V2000
   -2.0579   -1.9424    1.1979 N   0  0  0  0  0  0  0  0  0  0  0  0
   -2.1832   -0.7269    2.0091 C   0  0  1  0  0  0  0  0  0  0  0  0
   -1.6499    0.5201    1.2656 C   0  0  0  0  0  0  0  0  0  0  0  0
   -0.1627    0.4358    1.0343 C   0  0  0  0  0  0  0  0  0  0  0  0
    0.6027    0.5037    2.0344 O   0  0  0  0  0  0  0  0  0  0  0  0
    0.4018    0.2655   -0.2827 N   0  0  0  0  0  0  0  0  0  0  0  0
   -0.3820    0.1045   -1.4988 C   0  0  0  0  0  0  0  0  0  0  0  0
    0.6274   -0.0881   -2.6224 C   0  0  0  0  0  0  0  0  0  0  0  0
    1.9377   -0.4598   -1.9381 C   0  0  0  0  0  0  0  0  0  0  0  0
    1.8315    0.0998   -0.5161 C   0  0  1  0  0  0  0  0  0  0  0  0
    2.5518    1.4553   -0.3747 C   0  0  0  0  0  0  0  0  0  0  0  0
    3.9951    1.3008   -0.5479 N   0  0  0  0  0  0  0  0  0  0  0  0
    4.8257    0.6624    0.4309 C   0  0  0  0  0  0  0  0  0  0  0  0
    4.3561    0.3430    1.5565 O   0  0  0  0  0  0  0  0  0  0  0  0
    6.2745    0.4178    0.1389 C   0  0  0  0  0  0  0  0  0  0  0  0
    6.5324   -0.4432   -1.0889 C   0  0  0  0  0  0  0  0  0  0  0  0
    6.7209   -1.0279    0.2999 C   0  0  0  0  0  0  0  0  0  0  0  0
   -3.6412   -0.5441    2.4856 C   0  0  0  0  0  0  0  0  0  0  0  0
   -4.6307   -0.3575    1.3567 C   0  0  0  0  0  0  0  0  0  0  0  0
   -5.1994   -1.4803    0.7300 C   0  0  0  0  0  0  0  0  0  0  0  0
   -6.1001   -1.3211   -0.3273 C   0  0  0  0  0  0  0  0  0  0  0  0
   -6.6382   -2.4120   -0.9265 F   0  0  0  0  0  0  0  0  0  0  0  0
   -6.4443   -0.0396   -0.7664 C   0  0  0  0  0  0  0  0  0  0  0  0
   -7.3174    0.1164   -1.7922 F   0  0  0  0  0  0  0  0  0  0  0  0
   -5.8899    1.0832   -0.1466 C   0  0  0  0  0  0  0  0  0  0  0  0
   -4.9880    0.9303    0.9116 C   0  0  0  0  0  0  0  0  0  0  0  0
   -4.4682    2.0371    1.5003 F   0  0  0  0  0  0  0  0  0  0  0  0
   -1.0437   -2.1685    1.0801 H   0  0  0  0  0  0  0  0  0  0  0  0
   -2.4497   -1.7714    0.2441 H   0  0  0  0  0  0  0  0  0  0  0  0
   -1.5729   -0.8641    2.9307 H   0  0  0  0  0  0  0  0  0  0  0  0
   -1.8429    1.4228    1.8846 H   0  0  0  0  0  0  0  0  0  0  0  0
   -2.1985    0.6612    0.3134 H   0  0  0  0  0  0  0  0  0  0  0  0
   -1.0303   -0.7926   -1.4139 H   0  0  0  0  0  0  0  0  0  0  0  0
   -0.9993    1.0094   -1.6867 H   0  0  0  0  0  0  0  0  0  0  0  0
    0.7581    0.8680   -3.1757 H   0  0  0  0  0  0  0  0  0  0  0  0
    0.3018   -0.8798   -3.3316 H   0  0  0  0  0  0  0  0  0  0  0  0
    2.0189   -1.5682   -1.8891 H   0  0  0  0  0  0  0  0  0  0  0  0
    2.8119   -0.0693   -2.5030 H   0  0  0  0  0  0  0  0  0  0  0  0
    2.2483   -0.6373    0.2055 H   0  0  0  0  0  0  0  0  0  0  0  0
    2.1630    2.1630   -1.1397 H   0  0  0  0  0  0  0  0  0  0  0  0
    2.3491    1.9021    0.6217 H   0  0  0  0  0  0  0  0  0  0  0  0
    4.4385    1.6901   -1.4105 H   0  0  0  0  0  0  0  0  0  0  0  0
    7.0354    1.1961    0.3583 H   0  0  0  0  0  0  0  0  0  0  0  0
    5.6338   -0.8287   -1.6182 H   0  0  0  0  0  0  0  0  0  0  0  0
    7.4843   -0.2211   -1.6158 H   0  0  0  0  0  0  0  0  0  0  0  0
    7.7844   -1.1518    0.5941 H   0  0  0  0  0  0  0  0  0  0  0  0
    5.9336   -1.7580    0.5878 H   0  0  0  0  0  0  0  0  0  0  0  0
   -3.9345   -1.4342    3.0848 H   0  0  0  0  0  0  0  0  0  0  0  0
   -3.6937    0.3199    3.1834 H   0  0  0  0  0  0  0  0  0  0  0  0
   -4.9404   -2.4793    1.0589 H   0  0  0  0  0  0  0  0  0  0  0  0
   -6.1598    2.0750   -0.4863 H   0  0  0  0  0  0  0  0  0  0  0  0
  1  2  1  0
  2  3  1  0
  3  4  1  0
  4  5  2  0
  4  6  1  0
  6  7  1  0
  7  8  1  0
  8  9  1  0
  9 10  1  0
 10 11  1  0
 11 12  1  0
 12 13  1  0
 13 14  2  0
 13 15  1  0
 15 16  1  0
 16 17  1  0
  2 18  1  0
 18 19  1  0
 19 20  2  0
 20 21  1  0
 21 22  1  0
 21 23  2  0
 23 24  1  0
 23 25  1  0
 25 26  2  0
 26 27  1  0
 10  6  1  0
 17 15  1  0
 26 19  1  0
  1 28  1  0
  1 29  1  0
  2 30  1  1
  3 31  1  0
  3 32  1  0
  7 33  1  0
  7 34  1  0
  8 35  1  0
  8 36  1  0
  9 37  1  0
  9 38  1  0
 10 39  1  1
 11 40  1  0
 11 41  1  0
 12 42  1  0
 15 43  1  0
 16 44  1  0
 16 45  1  0
 17 46  1  0
 17 47  1  0
 18 48  1  0
 18 49  1  0
 20 50  1  0
 25 51  1  0
M  END
$$$$
