
     RDKit          3D

 37 38  0  0  0  0  0  0  0  0999 V2000
    7.8116    2.8295    1.5433 N   0  0  0  0  0  0  0  0  0  0  0  0
    6.9384    2.2075    1.1076 C   0  0  0  0  0  0  0  0  0  0  0  0
    5.8523    1.4339    0.5657 C   0  0  0  0  0  0  0  0  0  0  0  0
    6.0101    0.7361   -0.6358 C   0  0  0  0  0  0  0  0  0  0  0  0
    4.9483   -0.0106   -1.1506 C   0  0  0  0  0  0  0  0  0  0  0  0
    3.7325   -0.0521   -0.4544 C   0  0  0  0  0  0  0  0  0  0  0  0
    2.6323   -0.8144   -0.9703 N   0  0  0  0  0  0  0  0  0  0  0  0
    1.3497   -0.8764   -0.2692 C   0  0  0  0  0  0  0  0  0  0  0  0
    0.3515   -1.7637   -1.0321 C   0  0  0  0  0  0  0  0  0  0  0  0
   -0.9085   -1.9578   -0.2970 N   0  0  0  0  0  0  0  0  0  0  0  0
   -1.7289   -0.7380   -0.2612 C   0  0  0  0  0  0  0  0  0  0  0  0
   -3.1400   -1.0504    0.1658 C   0  0  0  0  0  0  0  0  0  0  0  0
   -3.4278   -2.2115    0.5684 O   0  0  0  0  0  0  0  0  0  0  0  0
   -4.1624   -0.0357    0.1368 N   0  0  0  0  0  0  0  0  0  0  0  0
   -5.5399   -0.3363    0.4996 C   0  0  0  0  0  0  0  0  0  0  0  0
   -6.4014    0.8461    0.0896 C   0  0  0  0  0  0  0  0  0  0  0  0
   -5.3685    2.3367    0.1271 S   0  0  0  0  0  0  0  0  0  0  0  0
   -3.8842    1.3500   -0.2181 C   0  0  0  0  0  0  0  0  0  0  0  0
    3.6046    0.6371    0.7147 N   0  0  0  0  0  0  0  0  0  0  0  0
    4.6250    1.3704    1.2342 C   0  0  0  0  0  0  0  0  0  0  0  0
    6.9506    0.7693   -1.1726 H   0  0  0  0  0  0  0  0  0  0  0  0
    5.0711   -0.5506   -2.0809 H   0  0  0  0  0  0  0  0  0  0  0  0
    2.7566   -1.3318   -1.8710 H   0  0  0  0  0  0  0  0  0  0  0  0
    1.5123   -1.2916    0.7490 H   0  0  0  0  0  0  0  0  0  0  0  0
    0.9437    0.1530   -0.1771 H   0  0  0  0  0  0  0  0  0  0  0  0
    0.8138   -2.7620   -1.1908 H   0  0  0  0  0  0  0  0  0  0  0  0
    0.1526   -1.3349   -2.0392 H   0  0  0  0  0  0  0  0  0  0  0  0
   -0.6926   -2.2535    0.6846 H   0  0  0  0  0  0  0  0  0  0  0  0
   -1.2980   -0.0087    0.4582 H   0  0  0  0  0  0  0  0  0  0  0  0
   -1.7697   -0.2715   -1.2697 H   0  0  0  0  0  0  0  0  0  0  0  0
   -5.8891   -1.2522   -0.0253 H   0  0  0  0  0  0  0  0  0  0  0  0
   -5.6034   -0.4947    1.5979 H   0  0  0  0  0  0  0  0  0  0  0  0
   -7.2684    0.9605    0.7739 H   0  0  0  0  0  0  0  0  0  0  0  0
   -6.7716    0.7009   -0.9480 H   0  0  0  0  0  0  0  0  0  0  0  0
   -3.0464    1.7446    0.3940 H   0  0  0  0  0  0  0  0  0  0  0  0
   -3.6336    1.4210   -1.2973 H   0  0  0  0  0  0  0  0  0  0  0  0
    4.4775    1.9017    2.1661 H   0  0  0  0  0  0  0  0  0  0  0  0
  1  2  3  0
  2  3  1  0
  3  4  2  0
  4  5  1  0
  5  6  2  0
  6  7  1  0
  7  8  1  0
  8  9  1  0
  9 10  1  0
 10 11  1  0
 11 12  1  0
 12 13  2  0
 12 14  1  0
 14 15  1  0
 15 16  1  0
 16 17  1  0
 17 18  1  0
  6 19  1  0
 19 20  2  0
 20  3  1  0
 18 14  1  0
  4 21  1  0
  5 22  1  0
  7 23  1  0
  8 24  1  0
  8 25  1  0
  9 26  1  0
  9 27  1  0
 10 28  1  0
 11 29  1  0
 11 30  1  0
 15 31  1  0
 15 32  1  0
 16 33  1  0
 16 34  1  0
 18 35  1  0
 18 36  1  0
 20 37  1  0
M  END
$$$$
