
     RDKit          3D

 53 56  0  0  0  0  0  0  0  0999 V2000
    5.3655   -2.6165    1.1525 O   0  0  0  0  0  0  0  0  0  0  0  0
    4.7776   -1.5350    0.8773 C   0  0  0  0  0  0  0  0  0  0  0  0
    3.5232   -1.1926    1.6486 C   0  0  2  0  0  0  0  0  0  0  0  0
    2.2792   -1.2492    0.7778 C   0  0  0  0  0  0  0  0  0  0  0  0
    1.3266   -0.2611    1.4377 C   0  0  2  0  0  0  0  0  0  0  0  0
    0.3729    0.3546    0.4744 N   0  0  0  0  0  0  0  0  0  0  0  0
   -0.3441   -0.6778   -0.3215 C   0  0  0  0  0  0  0  0  0  0  0  0
   -1.6258   -0.1396   -0.9659 C   0  0  0  0  0  0  0  0  0  0  0  0
   -2.5331    0.3701    0.0683 N   0  0  0  0  0  0  0  0  0  0  0  0
   -3.9596    0.4108   -0.1594 C   0  0  0  0  0  0  0  0  0  0  0  0
   -4.8614    0.2051    0.9001 C   0  0  0  0  0  0  0  0  0  0  0  0
   -6.2408    0.2434    0.6781 C   0  0  0  0  0  0  0  0  0  0  0  0
   -6.7497    0.4698   -0.6113 C   0  0  0  0  0  0  0  0  0  0  0  0
   -8.2374    0.5609   -0.8406 C   0  0  0  0  0  0  0  0  0  0  0  0
   -8.5585    0.1688   -2.1287 F   0  0  0  0  0  0  0  0  0  0  0  0
   -8.9193   -0.2579    0.0430 F   0  0  0  0  0  0  0  0  0  0  0  0
   -8.6476    1.8674   -0.6520 F   0  0  0  0  0  0  0  0  0  0  0  0
   -5.8514    0.7018   -1.6657 C   0  0  0  0  0  0  0  0  0  0  0  0
   -4.4720    0.6627   -1.4444 C   0  0  0  0  0  0  0  0  0  0  0  0
   -1.9625    0.8078    1.3473 C   0  0  0  0  0  0  0  0  0  0  0  0
   -0.5367    1.3352    1.1344 C   0  0  0  0  0  0  0  0  0  0  0  0
    2.2842    0.7702    2.0517 C   0  0  0  0  0  0  0  0  0  0  0  0
    3.5991    0.1471    2.2295 N   0  0  0  0  0  0  0  0  0  0  0  0
    5.2830   -0.7146   -0.1985 N   0  0  0  0  0  0  0  0  0  0  0  0
    6.1922   -1.2716   -1.1898 C   0  0  0  0  0  0  0  0  0  0  0  0
    6.2962   -0.2828   -2.3364 C   0  0  0  0  0  0  0  0  0  0  0  0
    6.0432    1.3805   -1.6624 S   0  0  0  0  0  0  0  0  0  0  0  0
    5.0129    0.7133   -0.3238 C   0  0  0  0  0  0  0  0  0  0  0  0
    3.3929   -1.9377    2.4701 H   0  0  0  0  0  0  0  0  0  0  0  0
    2.5102   -0.9271   -0.2608 H   0  0  0  0  0  0  0  0  0  0  0  0
    1.8513   -2.2755    0.7558 H   0  0  0  0  0  0  0  0  0  0  0  0
    0.7721   -0.7799    2.2544 H   0  0  0  0  0  0  0  0  0  0  0  0
   -0.6160   -1.5491    0.3177 H   0  0  0  0  0  0  0  0  0  0  0  0
    0.3168   -1.0416   -1.1367 H   0  0  0  0  0  0  0  0  0  0  0  0
   -1.3778    0.6756   -1.6795 H   0  0  0  0  0  0  0  0  0  0  0  0
   -2.1123   -0.9699   -1.5235 H   0  0  0  0  0  0  0  0  0  0  0  0
   -4.5007    0.0044    1.9004 H   0  0  0  0  0  0  0  0  0  0  0  0
   -6.9102    0.0947    1.5161 H   0  0  0  0  0  0  0  0  0  0  0  0
   -6.2159    0.9182   -2.6621 H   0  0  0  0  0  0  0  0  0  0  0  0
   -3.8055    0.8493   -2.2763 H   0  0  0  0  0  0  0  0  0  0  0  0
   -2.5766    1.6283    1.7793 H   0  0  0  0  0  0  0  0  0  0  0  0
   -1.9493   -0.0434    2.0617 H   0  0  0  0  0  0  0  0  0  0  0  0
   -0.1526    1.6855    2.1147 H   0  0  0  0  0  0  0  0  0  0  0  0
   -0.5932    2.2380    0.4890 H   0  0  0  0  0  0  0  0  0  0  0  0
    2.4004    1.6418    1.3717 H   0  0  0  0  0  0  0  0  0  0  0  0
    1.8926    1.1369    3.0271 H   0  0  0  0  0  0  0  0  0  0  0  0
    3.8044    0.0631    3.2535 H   0  0  0  0  0  0  0  0  0  0  0  0
    5.8058   -2.2432   -1.5681 H   0  0  0  0  0  0  0  0  0  0  0  0
    7.1906   -1.4272   -0.7265 H   0  0  0  0  0  0  0  0  0  0  0  0
    5.4987   -0.4857   -3.0830 H   0  0  0  0  0  0  0  0  0  0  0  0
    7.2878   -0.3525   -2.8312 H   0  0  0  0  0  0  0  0  0  0  0  0
    5.2851    1.2396    0.6141 H   0  0  0  0  0  0  0  0  0  0  0  0
    3.9456    0.8865   -0.5679 H   0  0  0  0  0  0  0  0  0  0  0  0
  1  2  2  0
  2  3  1  0
  3  4  1  0
  4  5  1  0
  5  6  1  0
  6  7  1  0
  7  8  1  0
  8  9  1  0
  9 10  1  0
 10 11  2  0
 11 12  1  0
 12 13  2  0
 13 14  1  0
 14 15  1  0
 14 16  1  0
 14 17  1  0
 13 18  1  0
 18 19  2  0
  9 20  1  0
 20 21  1  0
  5 22  1  0
 22 23  1  0
  2 24  1  0
 24 25  1  0
 25 26  1  0
 26 27  1  0
 27 28  1  0
 23  3  1  0
 28 24  1  0
 21  6  1  0
 19 10  1  0
  3 29  1  1
  4 30  1  0
  4 31  1  0
  5 32  1  1
  7 33  1  0
  7 34  1  0
  8 35  1  0
  8 36  1  0
 11 37  1  0
 12 38  1  0
 18 39  1  0
 19 40  1  0
 20 41  1  0
 20 42  1  0
 21 43  1  0
 21 44  1  0
 22 45  1  0
 22 46  1  0
 23 47  1  0
 25 48  1  0
 25 49  1  0
 26 50  1  0
 26 51  1  0
 28 52  1  0
 28 53  1  0
M  END
$$$$
