
     RDKit          3D

 52 55  0  0  0  0  0  0  0  0999 V2000
   -2.2410   -1.6505    2.4065 N   0  0  0  0  0  0  0  0  0  0  0  0
   -2.1431   -0.3199    1.7993 C   0  0  1  0  0  0  0  0  0  0  0  0
   -0.7230    0.2571    1.9953 C   0  0  0  0  0  0  0  0  0  0  0  0
   -0.6540    1.7134    1.6111 C   0  0  0  0  0  0  0  0  0  0  0  0
   -1.1761    2.5616    2.3847 O   0  0  0  0  0  0  0  0  0  0  0  0
   -0.0498    2.1572    0.3793 N   0  0  0  0  0  0  0  0  0  0  0  0
   -0.1500    3.5338   -0.0789 C   0  0  0  0  0  0  0  0  0  0  0  0
    0.6749    3.6085   -1.3572 C   0  0  0  0  0  0  0  0  0  0  0  0
    0.8670    2.1644   -1.8093 C   0  0  0  0  0  0  0  0  0  0  0  0
    0.6852    1.3120   -0.5537 C   0  0  1  0  0  0  0  0  0  0  0  0
    2.0141    0.9296    0.0305 C   0  0  0  0  0  0  0  0  0  0  0  0
    2.5567   -0.2979   -0.0794 N   0  0  0  0  0  0  0  0  0  0  0  0
    3.7203   -0.1286    0.5821 C   0  0  0  0  0  0  0  0  0  0  0  0
    4.7569   -1.1957    0.7136 C   0  0  0  0  0  0  0  0  0  0  0  0
    5.7002   -1.1513   -0.4929 C   0  0  0  0  0  0  0  0  0  0  0  0
    6.4155   -2.4582   -0.7983 C   0  0  0  0  0  0  0  0  0  0  0  0
    5.2759   -1.9887   -1.6901 C   0  0  0  0  0  0  0  0  0  0  0  0
    3.8803    1.1275    1.0421 N   0  0  0  0  0  0  0  0  0  0  0  0
    2.8002    1.7507    0.6832 O   0  0  0  0  0  0  0  0  0  0  0  0
   -2.5248   -0.3974    0.3068 C   0  0  0  0  0  0  0  0  0  0  0  0
   -3.9524   -0.8514    0.1267 C   0  0  0  0  0  0  0  0  0  0  0  0
   -4.9996    0.0784    0.2450 C   0  0  0  0  0  0  0  0  0  0  0  0
   -6.3290   -0.3323    0.1067 C   0  0  0  0  0  0  0  0  0  0  0  0
   -7.3314    0.5740    0.2193 F   0  0  0  0  0  0  0  0  0  0  0  0
   -6.6240   -1.6757   -0.1437 C   0  0  0  0  0  0  0  0  0  0  0  0
   -7.9128   -2.0757   -0.2768 F   0  0  0  0  0  0  0  0  0  0  0  0
   -5.5898   -2.6094   -0.2530 C   0  0  0  0  0  0  0  0  0  0  0  0
   -4.2579   -2.2044   -0.1156 C   0  0  0  0  0  0  0  0  0  0  0  0
   -3.2712   -3.1309   -0.2163 F   0  0  0  0  0  0  0  0  0  0  0  0
   -2.0922   -1.5630    3.4382 H   0  0  0  0  0  0  0  0  0  0  0  0
   -1.4794   -2.2612    2.0294 H   0  0  0  0  0  0  0  0  0  0  0  0
   -2.8688    0.3502    2.3145 H   0  0  0  0  0  0  0  0  0  0  0  0
    0.0145   -0.3517    1.4354 H   0  0  0  0  0  0  0  0  0  0  0  0
   -0.4440    0.1778    3.0684 H   0  0  0  0  0  0  0  0  0  0  0  0
   -1.2138    3.7792   -0.2887 H   0  0  0  0  0  0  0  0  0  0  0  0
    0.2550    4.2291    0.6882 H   0  0  0  0  0  0  0  0  0  0  0  0
    1.6666    4.0608   -1.1355 H   0  0  0  0  0  0  0  0  0  0  0  0
    0.1628    4.2129   -2.1371 H   0  0  0  0  0  0  0  0  0  0  0  0
    1.8567    2.0192   -2.2971 H   0  0  0  0  0  0  0  0  0  0  0  0
    0.0720    1.9071   -2.5439 H   0  0  0  0  0  0  0  0  0  0  0  0
    0.0984    0.4030   -0.8056 H   0  0  0  0  0  0  0  0  0  0  0  0
    4.2535   -2.1824    0.8161 H   0  0  0  0  0  0  0  0  0  0  0  0
    5.3491   -1.0203    1.6366 H   0  0  0  0  0  0  0  0  0  0  0  0
    6.2784   -0.2305   -0.7226 H   0  0  0  0  0  0  0  0  0  0  0  0
    6.1552   -3.3253   -0.1540 H   0  0  0  0  0  0  0  0  0  0  0  0
    7.4206   -2.3381   -1.2552 H   0  0  0  0  0  0  0  0  0  0  0  0
    5.6064   -1.5864   -2.6708 H   0  0  0  0  0  0  0  0  0  0  0  0
    4.3374   -2.5718   -1.5718 H   0  0  0  0  0  0  0  0  0  0  0  0
   -1.8298   -1.0822   -0.2261 H   0  0  0  0  0  0  0  0  0  0  0  0
   -2.4114    0.6026   -0.1653 H   0  0  0  0  0  0  0  0  0  0  0  0
   -4.7840    1.1208    0.4459 H   0  0  0  0  0  0  0  0  0  0  0  0
   -5.8206   -3.6500   -0.4419 H   0  0  0  0  0  0  0  0  0  0  0  0
  1  2  1  0
  2  3  1  0
  3  4  1  0
  4  5  2  0
  4  6  1  0
  6  7  1  0
  7  8  1  0
  8  9  1  0
  9 10  1  0
 10 11  1  0
 11 12  2  0
 12 13  1  0
 13 14  1  0
 14 15  1  0
 15 16  1  0
 16 17  1  0
 13 18  2  0
 18 19  1  0
  2 20  1  0
 20 21  1  0
 21 22  2  0
 22 23  1  0
 23 24  1  0
 23 25  2  0
 25 26  1  0
 25 27  1  0
 27 28  2  0
 28 29  1  0
 10  6  1  0
 19 11  1  0
 28 21  1  0
 17 15  1  0
  1 30  1  0
  1 31  1  0
  2 32  1  1
  3 33  1  0
  3 34  1  0
  7 35  1  0
  7 36  1  0
  8 37  1  0
  8 38  1  0
  9 39  1  0
  9 40  1  0
 10 41  1  6
 14 42  1  0
 14 43  1  0
 15 44  1  0
 16 45  1  0
 16 46  1  0
 17 47  1  0
 17 48  1  0
 20 49  1  0
 20 50  1  0
 22 51  1  0
 27 52  1  0
M  END
$$$$
