
     RDKit          3D

 49 52  0  0  0  0  0  0  0  0999 V2000
    6.9892    0.8859    0.7848 C   0  0  0  0  0  0  0  0  0  0  0  0
    5.5922    0.5894    0.3254 C   0  0  0  0  0  0  0  0  0  0  0  0
    4.5006    0.8945    1.1474 C   0  0  0  0  0  0  0  0  0  0  0  0
    3.1983    0.6593    0.7048 C   0  0  0  0  0  0  0  0  0  0  0  0
    2.9622    0.1121   -0.5685 C   0  0  0  0  0  0  0  0  0  0  0  0
    1.6134   -0.0919   -1.0269 N   0  0  0  0  0  0  0  0  0  0  0  0
    0.5316   -0.4861   -0.1672 C   0  0  0  0  0  0  0  0  0  0  0  0
   -0.7627    0.0164   -0.3797 C   0  0  0  0  0  0  0  0  0  0  0  0
   -1.8173   -0.3949    0.4756 C   0  0  0  0  0  0  0  0  0  0  0  0
   -3.1605    0.1087    0.3005 N   0  0  0  0  0  0  0  0  0  0  0  0
   -4.1248    0.0157    1.4075 C   0  0  0  0  0  0  0  0  0  0  0  0
   -5.0558    1.2318    1.4002 C   0  0  0  0  0  0  0  0  0  0  0  0
   -5.7537    1.4513    0.0412 C   0  0  0  0  0  0  0  0  0  0  0  0
   -5.1454    0.6269   -1.1125 C   0  0  1  0  0  0  0  0  0  0  0  0
   -5.5569    1.1864   -2.4008 N   0  0  0  0  0  0  0  0  0  0  0  0
   -3.6099    0.5951   -1.0160 C   0  0  0  0  0  0  0  0  0  0  0  0
   -1.5558   -1.2848    1.4815 N   0  0  0  0  0  0  0  0  0  0  0  0
   -0.2974   -1.7574    1.6417 C   0  0  0  0  0  0  0  0  0  0  0  0
    0.1485   -2.6818    2.5534 C   0  0  0  0  0  0  0  0  0  0  0  0
    1.4931   -2.8248    2.2233 C   0  0  0  0  0  0  0  0  0  0  0  0
    1.8091   -2.0264    1.1754 N   0  0  0  0  0  0  0  0  0  0  0  0
    0.7050   -1.3782    0.8446 N   0  0  0  0  0  0  0  0  0  0  0  0
    4.0593   -0.1790   -1.4105 C   0  0  0  0  0  0  0  0  0  0  0  0
    3.8488   -0.7400   -2.7907 C   0  0  0  0  0  0  0  0  0  0  0  0
    5.3659    0.0744   -0.9588 C   0  0  0  0  0  0  0  0  0  0  0  0
    7.0651    0.8030    1.8900 H   0  0  0  0  0  0  0  0  0  0  0  0
    7.2675    1.9160    0.4790 H   0  0  0  0  0  0  0  0  0  0  0  0
    7.7091    0.1678    0.3374 H   0  0  0  0  0  0  0  0  0  0  0  0
    4.6570    1.3226    2.1300 H   0  0  0  0  0  0  0  0  0  0  0  0
    2.3700    0.9191    1.3517 H   0  0  0  0  0  0  0  0  0  0  0  0
    1.3858    0.1408   -2.0198 H   0  0  0  0  0  0  0  0  0  0  0  0
   -0.9325    0.7277   -1.1770 H   0  0  0  0  0  0  0  0  0  0  0  0
   -4.7169   -0.9195    1.3073 H   0  0  0  0  0  0  0  0  0  0  0  0
   -3.5992   -0.0087    2.3870 H   0  0  0  0  0  0  0  0  0  0  0  0
   -4.4522    2.1331    1.6472 H   0  0  0  0  0  0  0  0  0  0  0  0
   -5.8190    1.1152    2.2000 H   0  0  0  0  0  0  0  0  0  0  0  0
   -5.7054    2.5341   -0.2104 H   0  0  0  0  0  0  0  0  0  0  0  0
   -6.8297    1.1862    0.1353 H   0  0  0  0  0  0  0  0  0  0  0  0
   -5.5212   -0.4200   -1.0367 H   0  0  0  0  0  0  0  0  0  0  0  0
   -5.2005    0.5615   -3.1604 H   0  0  0  0  0  0  0  0  0  0  0  0
   -6.6007    1.1425   -2.4589 H   0  0  0  0  0  0  0  0  0  0  0  0
   -3.2026    1.6153   -1.1879 H   0  0  0  0  0  0  0  0  0  0  0  0
   -3.2251   -0.0806   -1.8114 H   0  0  0  0  0  0  0  0  0  0  0  0
   -0.4115   -3.1899    3.3269 H   0  0  0  0  0  0  0  0  0  0  0  0
    2.1968   -3.4820    2.7158 H   0  0  0  0  0  0  0  0  0  0  0  0
    3.1295   -1.5853   -2.7538 H   0  0  0  0  0  0  0  0  0  0  0  0
    3.4512    0.0531   -3.4578 H   0  0  0  0  0  0  0  0  0  0  0  0
    4.7976   -1.1226   -3.2237 H   0  0  0  0  0  0  0  0  0  0  0  0
    6.2105   -0.1321   -1.6059 H   0  0  0  0  0  0  0  0  0  0  0  0
  1  2  1  0
  2  3  2  0
  3  4  1  0
  4  5  2  0
  5  6  1  0
  6  7  1  0
  7  8  2  0
  8  9  1  0
  9 10  1  0
 10 11  1  0
 11 12  1  0
 12 13  1  0
 13 14  1  0
 14 15  1  0
 14 16  1  0
  9 17  2  0
 17 18  1  0
 18 19  2  0
 19 20  1  0
 20 21  2  0
 21 22  1  0
  5 23  1  0
 23 24  1  0
 23 25  2  0
 25  2  1  0
 22  7  1  0
 16 10  1  0
 22 18  1  0
  1 26  1  0
  1 27  1  0
  1 28  1  0
  3 29  1  0
  4 30  1  0
  6 31  1  0
  8 32  1  0
 11 33  1  0
 11 34  1  0
 12 35  1  0
 12 36  1  0
 13 37  1  0
 13 38  1  0
 14 39  1  6
 15 40  1  0
 15 41  1  0
 16 42  1  0
 16 43  1  0
 19 44  1  0
 20 45  1  0
 24 46  1  0
 24 47  1  0
 24 48  1  0
 25 49  1  0
M  END
$$$$
