
     RDKit          3D

 51 54  0  0  0  0  0  0  0  0999 V2000
    3.5135    1.4054   -2.5337 O   0  0  0  0  0  0  0  0  0  0  0  0
    3.7353    0.7620   -1.4709 C   0  0  0  0  0  0  0  0  0  0  0  0
    2.6157    0.5693   -0.4648 C   0  0  2  0  0  0  0  0  0  0  0  0
    1.2245    0.5761   -1.0774 C   0  0  0  0  0  0  0  0  0  0  0  0
    0.3266    0.9008    0.1075 C   0  0  2  0  0  0  0  0  0  0  0  0
   -0.9359    1.5892   -0.2841 N   0  0  0  0  0  0  0  0  0  0  0  0
   -1.7866    1.9504    0.8888 C   0  0  0  0  0  0  0  0  0  0  0  0
   -3.0863    1.1268    1.0178 C   0  0  0  0  0  0  0  0  0  0  0  0
   -2.8444   -0.3381    0.6229 C   0  0  0  0  0  0  0  0  0  0  0  0
   -4.0939   -1.1774    0.8221 C   0  0  0  0  0  0  0  0  0  0  0  0
   -5.2828   -0.8867    0.1238 C   0  0  0  0  0  0  0  0  0  0  0  0
   -6.4261   -1.6677    0.3165 C   0  0  0  0  0  0  0  0  0  0  0  0
   -6.3973   -2.7453    1.2045 C   0  0  0  0  0  0  0  0  0  0  0  0
   -5.2242   -3.0451    1.9007 C   0  0  0  0  0  0  0  0  0  0  0  0
   -4.0775   -2.2676    1.7117 C   0  0  0  0  0  0  0  0  0  0  0  0
   -2.3033   -0.4508   -0.8230 C   0  0  0  0  0  0  0  0  0  0  0  0
   -1.7045    0.8740   -1.3315 C   0  0  0  0  0  0  0  0  0  0  0  0
    1.2283    1.7949    0.9777 C   0  0  0  0  0  0  0  0  0  0  0  0
    2.6249    1.6093    0.5648 N   0  0  0  0  0  0  0  0  0  0  0  0
    5.0672    0.2781   -1.2060 N   0  0  0  0  0  0  0  0  0  0  0  0
    5.4512   -0.3399    0.0563 C   0  0  0  0  0  0  0  0  0  0  0  0
    6.9676   -0.4281    0.0922 C   0  0  0  0  0  0  0  0  0  0  0  0
    7.5653   -0.5426   -1.6163 S   0  0  0  0  0  0  0  0  0  0  0  0
    6.1184    0.3798   -2.2088 C   0  0  0  0  0  0  0  0  0  0  0  0
    2.7514   -0.4154    0.0345 H   0  0  0  0  0  0  0  0  0  0  0  0
    1.1363    1.3808   -1.8409 H   0  0  0  0  0  0  0  0  0  0  0  0
    0.9773   -0.4107   -1.5267 H   0  0  0  0  0  0  0  0  0  0  0  0
    0.1081   -0.0400    0.6608 H   0  0  0  0  0  0  0  0  0  0  0  0
   -1.2335    1.8510    1.8474 H   0  0  0  0  0  0  0  0  0  0  0  0
   -2.0597    3.0236    0.8039 H   0  0  0  0  0  0  0  0  0  0  0  0
   -3.4530    1.1812    2.0666 H   0  0  0  0  0  0  0  0  0  0  0  0
   -3.8673    1.5774    0.3675 H   0  0  0  0  0  0  0  0  0  0  0  0
   -2.0520   -0.7189    1.3058 H   0  0  0  0  0  0  0  0  0  0  0  0
   -5.3242   -0.0602   -0.5739 H   0  0  0  0  0  0  0  0  0  0  0  0
   -7.3350   -1.4379   -0.2244 H   0  0  0  0  0  0  0  0  0  0  0  0
   -7.2835   -3.3488    1.3521 H   0  0  0  0  0  0  0  0  0  0  0  0
   -5.2029   -3.8813    2.5876 H   0  0  0  0  0  0  0  0  0  0  0  0
   -3.1785   -2.5179    2.2609 H   0  0  0  0  0  0  0  0  0  0  0  0
   -3.1010   -0.7573   -1.5339 H   0  0  0  0  0  0  0  0  0  0  0  0
   -1.5250   -1.2439   -0.8587 H   0  0  0  0  0  0  0  0  0  0  0  0
   -2.5303    1.5331   -1.6801 H   0  0  0  0  0  0  0  0  0  0  0  0
   -1.0899    0.6870   -2.2356 H   0  0  0  0  0  0  0  0  0  0  0  0
    0.9379    2.8660    0.8741 H   0  0  0  0  0  0  0  0  0  0  0  0
    1.1287    1.5124    2.0477 H   0  0  0  0  0  0  0  0  0  0  0  0
    2.9569    2.5112    0.1456 H   0  0  0  0  0  0  0  0  0  0  0  0
    5.0106   -1.3584    0.1164 H   0  0  0  0  0  0  0  0  0  0  0  0
    5.0965    0.2705    0.9146 H   0  0  0  0  0  0  0  0  0  0  0  0
    7.2994   -1.3118    0.6769 H   0  0  0  0  0  0  0  0  0  0  0  0
    7.3882    0.4924    0.5509 H   0  0  0  0  0  0  0  0  0  0  0  0
    6.3913    1.4452   -2.3620 H   0  0  0  0  0  0  0  0  0  0  0  0
    5.7775   -0.0644   -3.1679 H   0  0  0  0  0  0  0  0  0  0  0  0
  1  2  2  0
  2  3  1  0
  3  4  1  0
  4  5  1  0
  5  6  1  0
  6  7  1  0
  7  8  1  0
  8  9  1  0
  9 10  1  0
 10 11  2  0
 11 12  1  0
 12 13  2  0
 13 14  1  0
 14 15  2  0
  9 16  1  0
 16 17  1  0
  5 18  1  0
 18 19  1  0
  2 20  1  0
 20 21  1  0
 21 22  1  0
 22 23  1  0
 23 24  1  0
 19  3  1  0
 24 20  1  0
 17  6  1  0
 15 10  1  0
  3 25  1  1
  4 26  1  0
  4 27  1  0
  5 28  1  1
  7 29  1  0
  7 30  1  0
  8 31  1  0
  8 32  1  0
  9 33  1  0
 11 34  1  0
 12 35  1  0
 13 36  1  0
 14 37  1  0
 15 38  1  0
 16 39  1  0
 16 40  1  0
 17 41  1  0
 17 42  1  0
 18 43  1  0
 18 44  1  0
 19 45  1  0
 21 46  1  0
 21 47  1  0
 22 48  1  0
 22 49  1  0
 24 50  1  0
 24 51  1  0
M  END
$$$$
