
     RDKit          3D

 57 61  0  0  0  0  0  0  0  0999 V2000
   -4.3627    4.0935   -2.5235 N   0  0  0  0  0  0  0  0  0  0  0  0
   -3.6525    3.0793   -1.8170 C   0  0  0  0  0  0  0  0  0  0  0  0
   -2.3516    3.2675   -1.4826 N   0  0  0  0  0  0  0  0  0  0  0  0
   -1.6692    2.3011   -0.8176 C   0  0  0  0  0  0  0  0  0  0  0  0
   -0.3098    2.5395   -0.4279 N   0  0  0  0  0  0  0  0  0  0  0  0
    0.5910    1.5162    0.0108 C   0  0  0  0  0  0  0  0  0  0  0  0
    0.4235    0.2815   -0.3537 N   0  0  0  0  0  0  0  0  0  0  0  0
    1.3407   -0.7605    0.0201 C   0  0  0  0  0  0  0  0  0  0  0  0
    1.1551   -2.1194   -0.5664 C   0  0  0  0  0  0  0  0  0  0  0  0
    2.2032   -3.0644   -0.6259 C   0  0  0  0  0  0  0  0  0  0  0  0
    1.9899   -4.3278   -1.1865 C   0  0  0  0  0  0  0  0  0  0  0  0
    0.7387   -4.6639   -1.7054 C   0  0  0  0  0  0  0  0  0  0  0  0
   -0.3000   -3.7328   -1.6759 C   0  0  0  0  0  0  0  0  0  0  0  0
   -0.0922   -2.4681   -1.1188 C   0  0  0  0  0  0  0  0  0  0  0  0
    2.3301   -0.4846    0.8898 C   0  0  0  0  0  0  0  0  0  0  0  0
    2.4579    0.8857    1.5061 C   0  0  0  0  0  0  0  0  0  0  0  0
    3.9055    1.3041    1.5430 C   0  0  0  0  0  0  0  0  0  0  0  0
    4.6153    1.3060    2.7537 C   0  0  0  0  0  0  0  0  0  0  0  0
    5.9639    1.6728    2.7827 C   0  0  0  0  0  0  0  0  0  0  0  0
    6.6310    2.0380    1.5992 C   0  0  0  0  0  0  0  0  0  0  0  0
    8.0197    2.4158    1.6249 N   0  0  0  0  0  0  0  0  0  0  0  0
    8.6568    2.4281    2.6987 O   0  0  0  0  0  0  0  0  0  0  0  0
    8.6693    2.7713    0.4650 O   0  0  0  0  0  0  0  0  0  0  0  0
    5.9200    2.0251    0.3869 C   0  0  0  0  0  0  0  0  0  0  0  0
    4.5716    1.6585    0.3586 C   0  0  0  0  0  0  0  0  0  0  0  0
    1.6951    1.8628    0.7929 O   0  0  0  0  0  0  0  0  0  0  0  0
   -2.3043    1.1497   -0.4695 N   0  0  0  0  0  0  0  0  0  0  0  0
   -3.6130    0.9561   -0.7895 C   0  0  0  0  0  0  0  0  0  0  0  0
   -4.2975   -0.2499   -0.3858 N   0  0  0  0  0  0  0  0  0  0  0  0
   -5.6930   -0.4762   -0.7858 C   0  0  0  0  0  0  0  0  0  0  0  0
   -6.3931   -1.3884    0.2270 C   0  0  0  0  0  0  0  0  0  0  0  0
   -5.6406   -2.5640    0.4531 O   0  0  0  0  0  0  0  0  0  0  0  0
   -4.4128   -2.2289    1.0690 C   0  0  0  0  0  0  0  0  0  0  0  0
   -3.5403   -1.4006    0.1226 C   0  0  0  0  0  0  0  0  0  0  0  0
   -4.2796    1.9286   -1.4673 N   0  0  0  0  0  0  0  0  0  0  0  0
   -3.8865    4.9833   -2.7917 H   0  0  0  0  0  0  0  0  0  0  0  0
   -5.3655    3.9558   -2.7796 H   0  0  0  0  0  0  0  0  0  0  0  0
    0.0359    3.5253   -0.4245 H   0  0  0  0  0  0  0  0  0  0  0  0
    3.1959   -2.8311   -0.2682 H   0  0  0  0  0  0  0  0  0  0  0  0
    2.7998   -5.0449   -1.2259 H   0  0  0  0  0  0  0  0  0  0  0  0
    0.5772   -5.6421   -2.1396 H   0  0  0  0  0  0  0  0  0  0  0  0
   -1.2673   -3.9889   -2.0886 H   0  0  0  0  0  0  0  0  0  0  0  0
   -0.9093   -1.7615   -1.1210 H   0  0  0  0  0  0  0  0  0  0  0  0
    2.9899   -1.2600    1.2545 H   0  0  0  0  0  0  0  0  0  0  0  0
    2.0483    0.8248    2.5378 H   0  0  0  0  0  0  0  0  0  0  0  0
    4.1265    1.0225    3.6776 H   0  0  0  0  0  0  0  0  0  0  0  0
    6.4855    1.6683    3.7312 H   0  0  0  0  0  0  0  0  0  0  0  0
    6.4063    2.2959   -0.5413 H   0  0  0  0  0  0  0  0  0  0  0  0
    4.0457    1.6478   -0.5882 H   0  0  0  0  0  0  0  0  0  0  0  0
   -6.2543    0.4817   -0.8331 H   0  0  0  0  0  0  0  0  0  0  0  0
   -5.7122   -0.9503   -1.7909 H   0  0  0  0  0  0  0  0  0  0  0  0
   -7.3847   -1.6772   -0.1808 H   0  0  0  0  0  0  0  0  0  0  0  0
   -6.5806   -0.8411    1.1793 H   0  0  0  0  0  0  0  0  0  0  0  0
   -3.8748   -3.1679    1.3179 H   0  0  0  0  0  0  0  0  0  0  0  0
   -4.5763   -1.6835    2.0269 H   0  0  0  0  0  0  0  0  0  0  0  0
   -2.6353   -1.0732    0.6779 H   0  0  0  0  0  0  0  0  0  0  0  0
   -3.2302   -2.0354   -0.7345 H   0  0  0  0  0  0  0  0  0  0  0  0
  1  2  1  0
  2  3  2  0
  3  4  1  0
  4  5  1  0
  5  6  1  0
  6  7  2  0
  7  8  1  0
  8  9  1  0
  9 10  2  0
 10 11  1  0
 11 12  2  0
 12 13  1  0
 13 14  2  0
  8 15  2  0
 15 16  1  0
 16 17  1  0
 17 18  2  0
 18 19  1  0
 19 20  2  0
 20 21  1  0
 21 22  2  0
 21 23  1  0
 20 24  1  0
 24 25  2  0
 16 26  1  0
  4 27  2  0
 27 28  1  0
 28 29  1  0
 29 30  1  0
 30 31  1  0
 31 32  1  0
 32 33  1  0
 33 34  1  0
 28 35  2  0
 35  2  1  0
 26  6  1  0
 34 29  1  0
 14  9  1  0
 25 17  1  0
  1 36  1  0
  1 37  1  0
  5 38  1  0
 10 39  1  0
 11 40  1  0
 12 41  1  0
 13 42  1  0
 14 43  1  0
 15 44  1  0
 16 45  1  0
 18 46  1  0
 19 47  1  0
 24 48  1  0
 25 49  1  0
 30 50  1  0
 30 51  1  0
 31 52  1  0
 31 53  1  0
 33 54  1  0
 33 55  1  0
 34 56  1  0
 34 57  1  0
M  CHG  2  21   1  23  -1
M  END
$$$$
