
     RDKit          3D

 51 52  0  0  0  0  0  0  0  0999 V2000
   -3.6688   -1.7925    0.4872 C   0  0  0  0  0  0  0  0  0  0  0  0
   -3.1236   -1.8087   -0.9489 C   0  0  0  0  0  0  0  0  0  0  0  0
   -4.2363   -2.1849   -1.9383 C   0  0  0  0  0  0  0  0  0  0  0  0
   -2.4096   -0.4876   -1.3602 C   0  0  0  0  0  0  0  0  0  0  0  0
   -1.2524   -0.2195   -0.4929 N   0  0  0  0  0  0  0  0  0  0  0  0
   -0.0322   -0.9706   -0.5846 C   0  0  0  0  0  0  0  0  0  0  0  0
    0.1065   -1.8602   -1.4677 O   0  0  0  0  0  0  0  0  0  0  0  0
    1.1088   -0.6661    0.3414 C   0  0  0  0  0  0  0  0  0  0  0  0
    1.9067    0.5633   -0.1446 C   0  0  2  0  0  0  0  0  0  0  0  0
    2.6726    0.2897   -1.3647 N   0  0  0  0  0  0  0  0  0  0  0  0
    2.8118    1.1309    0.9281 C   0  0  0  0  0  0  0  0  0  0  0  0
    2.5235    2.2633    1.4037 O   0  0  0  0  0  0  0  0  0  0  0  0
    4.0077    0.4650    1.3892 N   0  0  0  0  0  0  0  0  0  0  0  0
    4.1655   -0.9779    1.5010 C   0  0  0  0  0  0  0  0  0  0  0  0
    5.5379   -1.2014    2.1218 C   0  0  0  0  0  0  0  0  0  0  0  0
    5.9238    0.1266    2.7614 C   0  0  0  0  0  0  0  0  0  0  0  0
    5.0907    1.1881    2.0440 C   0  0  1  0  0  0  0  0  0  0  0  0
    5.8888    1.9040    1.0362 C   0  0  0  0  0  0  0  0  0  0  0  0
    6.5158    2.4669    0.2429 N   0  0  0  0  0  0  0  0  0  0  0  0
   -3.3493    0.7125   -1.4229 C   0  0  0  0  0  0  0  0  0  0  0  0
   -3.7863    1.3773   -0.2585 C   0  0  0  0  0  0  0  0  0  0  0  0
   -4.6657    2.4604   -0.3469 C   0  0  0  0  0  0  0  0  0  0  0  0
   -5.1248    2.8912   -1.5929 C   0  0  0  0  0  0  0  0  0  0  0  0
   -4.7076    2.2379   -2.7537 C   0  0  0  0  0  0  0  0  0  0  0  0
   -3.8282    1.1544   -2.6715 C   0  0  0  0  0  0  0  0  0  0  0  0
   -4.5481   -1.1212    0.5747 H   0  0  0  0  0  0  0  0  0  0  0  0
   -2.8842   -1.4679    1.2024 H   0  0  0  0  0  0  0  0  0  0  0  0
   -3.9907   -2.8154    0.7772 H   0  0  0  0  0  0  0  0  0  0  0  0
   -2.3697   -2.6247   -0.9964 H   0  0  0  0  0  0  0  0  0  0  0  0
   -4.6429   -3.1887   -1.6908 H   0  0  0  0  0  0  0  0  0  0  0  0
   -3.8347   -2.2212   -2.9734 H   0  0  0  0  0  0  0  0  0  0  0  0
   -5.0674   -1.4489   -1.9001 H   0  0  0  0  0  0  0  0  0  0  0  0
   -2.0083   -0.6453   -2.3871 H   0  0  0  0  0  0  0  0  0  0  0  0
   -1.2821    0.5618    0.1993 H   0  0  0  0  0  0  0  0  0  0  0  0
    1.7559   -1.5631    0.4144 H   0  0  0  0  0  0  0  0  0  0  0  0
    0.6976   -0.4678    1.3552 H   0  0  0  0  0  0  0  0  0  0  0  0
    1.1664    1.3620   -0.3862 H   0  0  0  0  0  0  0  0  0  0  0  0
    3.1301   -0.6465   -1.3063 H   0  0  0  0  0  0  0  0  0  0  0  0
    2.0091    0.2473   -2.1722 H   0  0  0  0  0  0  0  0  0  0  0  0
    3.3772   -1.3885    2.1683 H   0  0  0  0  0  0  0  0  0  0  0  0
    4.1255   -1.4661    0.5079 H   0  0  0  0  0  0  0  0  0  0  0  0
    5.5169   -2.0223    2.8712 H   0  0  0  0  0  0  0  0  0  0  0  0
    6.2723   -1.4530    1.3249 H   0  0  0  0  0  0  0  0  0  0  0  0
    7.0201    0.3062    2.6923 H   0  0  0  0  0  0  0  0  0  0  0  0
    5.6399    0.1051    3.8369 H   0  0  0  0  0  0  0  0  0  0  0  0
    4.6903    1.9151    2.7839 H   0  0  0  0  0  0  0  0  0  0  0  0
   -3.4547    1.0608    0.7211 H   0  0  0  0  0  0  0  0  0  0  0  0
   -4.9939    2.9646    0.5529 H   0  0  0  0  0  0  0  0  0  0  0  0
   -5.8066    3.7293   -1.6585 H   0  0  0  0  0  0  0  0  0  0  0  0
   -5.0681    2.5692   -3.7190 H   0  0  0  0  0  0  0  0  0  0  0  0
   -3.5252    0.6572   -3.5846 H   0  0  0  0  0  0  0  0  0  0  0  0
  1  2  1  0
  2  3  1  0
  2  4  1  0
  4  5  1  0
  5  6  1  0
  6  7  2  0
  6  8  1  0
  8  9  1  0
  9 10  1  0
  9 11  1  0
 11 12  2  0
 11 13  1  0
 13 14  1  0
 14 15  1  0
 15 16  1  0
 16 17  1  0
 17 18  1  0
 18 19  3  0
  4 20  1  0
 20 21  2  0
 21 22  1  0
 22 23  2  0
 23 24  1  0
 24 25  2  0
 17 13  1  0
 25 20  1  0
  1 26  1  0
  1 27  1  0
  1 28  1  0
  2 29  1  0
  3 30  1  0
  3 31  1  0
  3 32  1  0
  4 33  1  0
  5 34  1  0
  8 35  1  0
  8 36  1  0
  9 37  1  6
 10 38  1  0
 10 39  1  0
 14 40  1  0
 14 41  1  0
 15 42  1  0
 15 43  1  0
 16 44  1  0
 16 45  1  0
 17 46  1  1
 21 47  1  0
 22 48  1  0
 23 49  1  0
 24 50  1  0
 25 51  1  0
M  END
$$$$
