
     RDKit          3D

 43 43  0  0  0  0  0  0  0  0999 V2000
    5.8920    1.5602    2.1604 C   0  0  0  0  0  0  0  0  0  0  0  0
    5.3471    0.3670    1.9643 C   0  0  0  0  0  0  0  0  0  0  0  0
    4.3528    0.2081    0.9977 O   0  0  0  0  0  0  0  0  0  0  0  0
    3.7307   -1.0174    0.7361 C   0  0  0  0  0  0  0  0  0  0  0  0
    4.0729   -2.0614    1.3558 O   0  0  0  0  0  0  0  0  0  0  0  0
    2.6696   -1.0985   -0.3256 C   0  0  2  0  0  0  0  0  0  0  0  0
    3.2885   -1.0819   -1.7255 C   0  0  0  0  0  0  0  0  0  0  0  0
    2.4158   -0.1444   -2.5544 C   0  0  0  0  0  0  0  0  0  0  0  0
    1.6812    0.7389   -1.5551 C   0  0  0  0  0  0  0  0  0  0  0  0
    1.7851    0.0589   -0.2739 N   0  0  0  0  0  0  0  0  0  0  0  0
    1.0065    0.4115    0.8869 C   0  0  0  0  0  0  0  0  0  0  0  0
    1.0094   -0.3455    1.8954 O   0  0  0  0  0  0  0  0  0  0  0  0
    0.1670    1.6575    0.9204 C   0  0  0  0  0  0  0  0  0  0  0  0
   -1.0947    1.4451    0.2151 N   0  0  0  0  0  0  0  0  0  0  0  0
   -2.1324    0.5979    0.7202 C   0  0  0  0  0  0  0  0  0  0  0  0
   -1.9931    0.0241    1.8342 O   0  0  0  0  0  0  0  0  0  0  0  0
   -3.2968    0.4241   -0.0427 O   0  0  0  0  0  0  0  0  0  0  0  0
   -4.4219   -0.3993    0.2994 C   0  0  0  0  0  0  0  0  0  0  0  0
   -5.4403   -0.2745   -0.8441 C   0  0  0  0  0  0  0  0  0  0  0  0
   -5.0772    0.0915    1.6046 C   0  0  0  0  0  0  0  0  0  0  0  0
   -3.9956   -1.8745    0.4268 C   0  0  0  0  0  0  0  0  0  0  0  0
    5.5715    2.4131    1.5760 H   0  0  0  0  0  0  0  0  0  0  0  0
    6.6632    1.6902    2.9085 H   0  0  0  0  0  0  0  0  0  0  0  0
    5.6819   -0.4737    2.5603 H   0  0  0  0  0  0  0  0  0  0  0  0
    2.0634   -2.0225   -0.1924 H   0  0  0  0  0  0  0  0  0  0  0  0
    4.3272   -0.6809   -1.7079 H   0  0  0  0  0  0  0  0  0  0  0  0
    3.3091   -2.1025   -2.1663 H   0  0  0  0  0  0  0  0  0  0  0  0
    3.0264    0.4625   -3.2578 H   0  0  0  0  0  0  0  0  0  0  0  0
    1.6794   -0.7426   -3.1352 H   0  0  0  0  0  0  0  0  0  0  0  0
    0.6185    0.8488   -1.8580 H   0  0  0  0  0  0  0  0  0  0  0  0
    2.1643    1.7375   -1.4874 H   0  0  0  0  0  0  0  0  0  0  0  0
   -0.0378    1.9580    1.9710 H   0  0  0  0  0  0  0  0  0  0  0  0
    0.7251    2.4908    0.4433 H   0  0  0  0  0  0  0  0  0  0  0  0
   -1.2632    1.9581   -0.6793 H   0  0  0  0  0  0  0  0  0  0  0  0
   -6.3432   -0.8915   -0.6439 H   0  0  0  0  0  0  0  0  0  0  0  0
   -4.9875   -0.6109   -1.8017 H   0  0  0  0  0  0  0  0  0  0  0  0
   -5.7555    0.7843   -0.9655 H   0  0  0  0  0  0  0  0  0  0  0  0
   -4.4101   -0.0642    2.4767 H   0  0  0  0  0  0  0  0  0  0  0  0
   -5.3106    1.1753    1.5321 H   0  0  0  0  0  0  0  0  0  0  0  0
   -6.0210   -0.4622    1.8000 H   0  0  0  0  0  0  0  0  0  0  0  0
   -3.4566   -2.1980   -0.4894 H   0  0  0  0  0  0  0  0  0  0  0  0
   -3.3266   -2.0292    1.2976 H   0  0  0  0  0  0  0  0  0  0  0  0
   -4.8844   -2.5275    0.5647 H   0  0  0  0  0  0  0  0  0  0  0  0
  1  2  2  0
  2  3  1  0
  3  4  1  0
  4  5  2  0
  4  6  1  0
  6  7  1  0
  7  8  1  0
  8  9  1  0
  9 10  1  0
 10 11  1  0
 11 12  2  0
 11 13  1  0
 13 14  1  0
 14 15  1  0
 15 16  2  0
 15 17  1  0
 17 18  1  0
 18 19  1  0
 18 20  1  0
 18 21  1  0
 10  6  1  0
  1 22  1  0
  1 23  1  0
  2 24  1  0
  6 25  1  1
  7 26  1  0
  7 27  1  0
  8 28  1  0
  8 29  1  0
  9 30  1  0
  9 31  1  0
 13 32  1  0
 13 33  1  0
 14 34  1  0
 19 35  1  0
 19 36  1  0
 19 37  1  0
 20 38  1  0
 20 39  1  0
 20 40  1  0
 21 41  1  0
 21 42  1  0
 21 43  1  0
M  END
$$$$
