
     RDKit          3D

 48 48  0  0  0  0  0  0  0  0999 V2000
   -3.9634    3.2128   -1.9531 N   0  0  0  0  0  0  0  0  0  0  0  0
   -4.1608    2.1127   -1.6529 C   0  0  0  0  0  0  0  0  0  0  0  0
   -4.4110    0.7124   -1.2712 C   0  0  2  0  0  0  0  0  0  0  0  0
   -5.5637    0.6103   -0.2701 C   0  0  0  0  0  0  0  0  0  0  0  0
   -5.1101   -0.4016    0.7775 C   0  0  0  0  0  0  0  0  0  0  0  0
   -3.5900   -0.4287    0.6982 C   0  0  0  0  0  0  0  0  0  0  0  0
   -3.2516    0.1469   -0.5942 N   0  0  0  0  0  0  0  0  0  0  0  0
   -1.9600    0.0075   -1.2202 C   0  0  0  0  0  0  0  0  0  0  0  0
   -1.8389    0.2545   -2.4519 O   0  0  0  0  0  0  0  0  0  0  0  0
   -0.7618   -0.4910   -0.4466 C   0  0  1  0  0  0  0  0  0  0  0  0
   -0.6559   -1.9411   -0.6267 N   0  0  0  0  0  0  0  0  0  0  0  0
    0.5269    0.2468   -0.8849 C   0  0  0  0  0  0  0  0  0  0  0  0
    1.7265   -0.0716    0.0243 C   0  0  0  0  0  0  0  0  0  0  0  0
    2.9708    0.6965   -0.3550 C   0  0  0  0  0  0  0  0  0  0  0  0
    2.8800    1.7084   -1.1042 O   0  0  0  0  0  0  0  0  0  0  0  0
    4.2598    0.3172    0.1654 N   0  0  0  0  0  0  0  0  0  0  0  0
    4.4363   -0.7623    1.1278 C   0  0  0  0  0  0  0  0  0  0  0  0
    5.8523   -0.6772    1.6721 C   0  0  0  0  0  0  0  0  0  0  0  0
    6.8998    0.0844    0.4020 S   0  0  0  0  0  0  0  0  0  0  0  0
    5.4761    0.9945   -0.2617 C   0  0  0  0  0  0  0  0  0  0  0  0
    0.7827    0.9320   -1.2154 O   0  0  0  0  0  0  0  0  0  0  0  0
    0.4709    0.1418   -0.2846 C   0  0  0  0  0  0  0  0  0  0  0  0
    1.4618   -0.5834    0.3703 O   0  0  0  0  0  0  0  0  0  0  0  0
   -0.9529    0.0285    0.1546 C   0  0  0  0  0  0  0  0  0  0  0  0
   -1.1574   -1.1839    0.7877 F   0  0  0  0  0  0  0  0  0  0  0  0
   -1.7936    0.1116   -0.9406 F   0  0  0  0  0  0  0  0  0  0  0  0
   -1.2449    1.0549    1.0327 F   0  0  0  0  0  0  0  0  0  0  0  0
   -4.6392    0.1139   -2.1800 H   0  0  0  0  0  0  0  0  0  0  0  0
   -5.7553    1.5844    0.2351 H   0  0  0  0  0  0  0  0  0  0  0  0
   -6.4998    0.2766   -0.7687 H   0  0  0  0  0  0  0  0  0  0  0  0
   -5.4578   -0.1178    1.7947 H   0  0  0  0  0  0  0  0  0  0  0  0
   -5.5144   -1.4056    0.5208 H   0  0  0  0  0  0  0  0  0  0  0  0
   -3.2210   -1.4749    0.7717 H   0  0  0  0  0  0  0  0  0  0  0  0
   -3.1482    0.1899    1.5089 H   0  0  0  0  0  0  0  0  0  0  0  0
   -0.9221   -0.2728    0.6316 H   0  0  0  0  0  0  0  0  0  0  0  0
   -0.2401   -2.1539   -1.5629 H   0  0  0  0  0  0  0  0  0  0  0  0
   -0.0237   -2.3356    0.1062 H   0  0  0  0  0  0  0  0  0  0  0  0
    0.3318    1.3419   -0.8432 H   0  0  0  0  0  0  0  0  0  0  0  0
    0.7808   -0.0171   -1.9355 H   0  0  0  0  0  0  0  0  0  0  0  0
    1.4691    0.1736    1.0770 H   0  0  0  0  0  0  0  0  0  0  0  0
    1.9521   -1.1557   -0.0427 H   0  0  0  0  0  0  0  0  0  0  0  0
    3.7114   -0.6623    1.9644 H   0  0  0  0  0  0  0  0  0  0  0  0
    4.2828   -1.7379    0.6182 H   0  0  0  0  0  0  0  0  0  0  0  0
    6.2367   -1.6851    1.9353 H   0  0  0  0  0  0  0  0  0  0  0  0
    5.8706   -0.0317    2.5763 H   0  0  0  0  0  0  0  0  0  0  0  0
    5.5410    1.0033   -1.3703 H   0  0  0  0  0  0  0  0  0  0  0  0
    5.4837    2.0352    0.1254 H   0  0  0  0  0  0  0  0  0  0  0  0
    2.4334   -0.5014    0.0952 H   0  0  0  0  0  0  0  0  0  0  0  0
  1  2  3  0
  2  3  1  0
  3  4  1  0
  4  5  1  0
  5  6  1  0
  6  7  1  0
  7  8  1  0
  8  9  2  0
  8 10  1  0
 10 11  1  0
 10 12  1  0
 12 13  1  0
 13 14  1  0
 14 15  2  0
 14 16  1  0
 16 17  1  0
 17 18  1  0
 18 19  1  0
 19 20  1  0
 21 22  2  0
 22 23  1  0
 22 24  1  0
 24 25  1  0
 24 26  1  0
 24 27  1  0
  7  3  1  0
 20 16  1  0
  3 28  1  6
  4 29  1  0
  4 30  1  0
  5 31  1  0
  5 32  1  0
  6 33  1  0
  6 34  1  0
 10 35  1  1
 11 36  1  0
 11 37  1  0
 12 38  1  0
 12 39  1  0
 13 40  1  0
 13 41  1  0
 17 42  1  0
 17 43  1  0
 18 44  1  0
 18 45  1  0
 20 46  1  0
 20 47  1  0
 23 48  1  0
M  END
$$$$
