
     RDKit          3D

 63 66  0  0  0  0  0  0  0  0999 V2000
   -1.6902   -3.3194   -2.2074 C   0  0  0  0  0  0  0  0  0  0  0  0
   -0.7368   -2.1501   -2.2687 C   0  0  0  0  0  0  0  0  0  0  0  0
   -0.0114   -1.8414   -3.5524 C   0  0  0  0  0  0  0  0  0  0  0  0
   -0.5126   -1.3667   -1.1940 C   0  0  0  0  0  0  0  0  0  0  0  0
   -1.1698   -1.5914    0.1457 C   0  0  0  0  0  0  0  0  0  0  0  0
   -0.7085   -0.5892    1.1117 N   0  0  0  0  0  0  0  0  0  0  0  0
   -1.3227    0.5771    1.4465 C   0  0  0  0  0  0  0  0  0  0  0  0
   -2.6495    0.9226    1.0279 N   0  0  0  0  0  0  0  0  0  0  0  0
   -3.7892    0.2047    1.6067 C   0  0  0  0  0  0  0  0  0  0  0  0
   -4.9243    0.1099    0.5842 C   0  0  0  0  0  0  0  0  0  0  0  0
   -5.2646    1.4940    0.0194 C   0  0  0  0  0  0  0  0  0  0  0  0
   -4.0215    2.1557   -0.6031 C   0  0  1  0  0  0  0  0  0  0  0  0
   -4.3574    3.4951   -1.0867 N   0  0  0  0  0  0  0  0  0  0  0  0
   -2.8891    2.2410    0.4343 C   0  0  0  0  0  0  0  0  0  0  0  0
   -0.5374    1.4287    2.1552 N   0  0  0  0  0  0  0  0  0  0  0  0
    0.6155    0.7406    2.2636 C   0  0  0  0  0  0  0  0  0  0  0  0
    0.5236   -0.4578    1.6411 C   0  0  0  0  0  0  0  0  0  0  0  0
    1.6391   -1.2797    1.5378 C   0  0  0  0  0  0  0  0  0  0  0  0
    1.5529   -2.4078    0.9797 O   0  0  0  0  0  0  0  0  0  0  0  0
    2.8372   -0.8292    2.0486 N   0  0  0  0  0  0  0  0  0  0  0  0
    4.0575   -1.6495    1.8705 C   0  0  0  0  0  0  0  0  0  0  0  0
    4.3338   -1.9212    0.4109 C   0  0  0  0  0  0  0  0  0  0  0  0
    4.6308   -3.0957    0.0612 O   0  0  0  0  0  0  0  0  0  0  0  0
    4.2363   -0.8605   -0.6197 C   0  0  0  0  0  0  0  0  0  0  0  0
    3.8184   -1.1874   -1.9223 C   0  0  0  0  0  0  0  0  0  0  0  0
    3.6831   -0.1905   -2.8932 C   0  0  0  0  0  0  0  0  0  0  0  0
    3.9711    1.1390   -2.5768 C   0  0  0  0  0  0  0  0  0  0  0  0
    4.4007    1.4730   -1.2903 C   0  0  0  0  0  0  0  0  0  0  0  0
    4.5363    0.4796   -0.3158 C   0  0  0  0  0  0  0  0  0  0  0  0
    2.8920    0.3860    2.7163 C   0  0  0  0  0  0  0  0  0  0  0  0
    3.9825    0.7824    3.2163 O   0  0  0  0  0  0  0  0  0  0  0  0
    1.7701    1.1776    2.8338 N   0  0  0  0  0  0  0  0  0  0  0  0
    1.8372    2.5003    3.4695 C   0  0  0  0  0  0  0  0  0  0  0  0
   -1.7501   -3.8473   -3.1817 H   0  0  0  0  0  0  0  0  0  0  0  0
   -2.7093   -2.9639   -1.9471 H   0  0  0  0  0  0  0  0  0  0  0  0
   -1.3471   -4.0485   -1.4437 H   0  0  0  0  0  0  0  0  0  0  0  0
   -0.2912   -2.5468   -4.3621 H   0  0  0  0  0  0  0  0  0  0  0  0
    1.0844   -1.9157   -3.3898 H   0  0  0  0  0  0  0  0  0  0  0  0
   -0.2597   -0.8116   -3.8865 H   0  0  0  0  0  0  0  0  0  0  0  0
    0.1813   -0.5338   -1.2895 H   0  0  0  0  0  0  0  0  0  0  0  0
   -2.2692   -1.5305    0.0223 H   0  0  0  0  0  0  0  0  0  0  0  0
   -0.9323   -2.6073    0.5247 H   0  0  0  0  0  0  0  0  0  0  0  0
   -4.1434    0.7480    2.5098 H   0  0  0  0  0  0  0  0  0  0  0  0
   -3.4949   -0.8199    1.9218 H   0  0  0  0  0  0  0  0  0  0  0  0
   -5.8244   -0.3238    1.0704 H   0  0  0  0  0  0  0  0  0  0  0  0
   -4.6208   -0.5654   -0.2456 H   0  0  0  0  0  0  0  0  0  0  0  0
   -6.0542    1.3814   -0.7550 H   0  0  0  0  0  0  0  0  0  0  0  0
   -5.6695    2.1375    0.8318 H   0  0  0  0  0  0  0  0  0  0  0  0
   -3.6738    1.5329   -1.4600 H   0  0  0  0  0  0  0  0  0  0  0  0
   -5.0822    3.4020   -1.8353 H   0  0  0  0  0  0  0  0  0  0  0  0
   -3.5125    3.8971   -1.5547 H   0  0  0  0  0  0  0  0  0  0  0  0
   -3.1578    2.9619    1.2376 H   0  0  0  0  0  0  0  0  0  0  0  0
   -1.9664    2.6067   -0.0690 H   0  0  0  0  0  0  0  0  0  0  0  0
    3.9230   -2.6120    2.4114 H   0  0  0  0  0  0  0  0  0  0  0  0
    4.9593   -1.1696    2.3042 H   0  0  0  0  0  0  0  0  0  0  0  0
    3.5756   -2.2104   -2.1825 H   0  0  0  0  0  0  0  0  0  0  0  0
    3.3504   -0.4486   -3.8903 H   0  0  0  0  0  0  0  0  0  0  0  0
    3.8650    1.9096   -3.3292 H   0  0  0  0  0  0  0  0  0  0  0  0
    4.6317    2.5023   -1.0483 H   0  0  0  0  0  0  0  0  0  0  0  0
    4.8895    0.7588    0.6670 H   0  0  0  0  0  0  0  0  0  0  0  0
    2.2270    3.2429    2.7419 H   0  0  0  0  0  0  0  0  0  0  0  0
    2.5019    2.4748    4.3592 H   0  0  0  0  0  0  0  0  0  0  0  0
    0.8365    2.8297    3.8225 H   0  0  0  0  0  0  0  0  0  0  0  0
  1  2  1  0
  2  3  1  0
  2  4  2  3
  4  5  1  0
  5  6  1  0
  6  7  1  0
  7  8  1  0
  8  9  1  0
  9 10  1  0
 10 11  1  0
 11 12  1  0
 12 13  1  0
 12 14  1  0
  7 15  2  0
 15 16  1  0
 16 17  2  0
 17 18  1  0
 18 19  2  0
 18 20  1  0
 20 21  1  0
 21 22  1  0
 22 23  2  0
 22 24  1  0
 24 25  2  0
 25 26  1  0
 26 27  2  0
 27 28  1  0
 28 29  2  0
 20 30  1  0
 30 31  2  0
 30 32  1  0
 32 33  1  0
 17  6  1  0
 29 24  1  0
 14  8  1  0
 32 16  1  0
  1 34  1  0
  1 35  1  0
  1 36  1  0
  3 37  1  0
  3 38  1  0
  3 39  1  0
  4 40  1  0
  5 41  1  0
  5 42  1  0
  9 43  1  0
  9 44  1  0
 10 45  1  0
 10 46  1  0
 11 47  1  0
 11 48  1  0
 12 49  1  6
 13 50  1  0
 13 51  1  0
 14 52  1  0
 14 53  1  0
 21 54  1  0
 21 55  1  0
 25 56  1  0
 26 57  1  0
 27 58  1  0
 28 59  1  0
 29 60  1  0
 33 61  1  0
 33 62  1  0
 33 63  1  0
M  END
$$$$
