
     RDKit          3D

 67 69  0  0  0  0  0  0  0  0999 V2000
   -4.8023    1.5106   -0.2671 C   0  0  0  0  0  0  0  0  0  0  0  0
   -5.1837    0.0537   -0.3206 C   0  0  0  0  0  0  0  0  0  0  0  0
   -4.2195   -0.9881   -0.2324 C   0  0  0  0  0  0  0  0  0  0  0  0
   -2.7700   -0.7141   -0.1153 C   0  0  0  0  0  0  0  0  0  0  0  0
   -2.0469   -1.2058    0.9795 C   0  0  0  0  0  0  0  0  0  0  0  0
   -0.6792   -0.9474    1.0951 C   0  0  0  0  0  0  0  0  0  0  0  0
    0.0005   -0.2035    0.1128 C   0  0  0  0  0  0  0  0  0  0  0  0
    1.4864    0.0735    0.3135 C   0  0  2  0  0  0  0  0  0  0  0  0
    1.7043    1.0910    1.4220 C   0  0  0  0  0  0  0  0  0  0  0  0
    2.2002    0.6837    2.5086 O   0  0  0  0  0  0  0  0  0  0  0  0
    1.4290    2.4995    1.2663 N   0  0  0  0  0  0  0  0  0  0  0  0
    2.2767    3.4574    1.9821 C   0  0  0  0  0  0  0  0  0  0  0  0
    0.2436    2.9735    0.5471 C   0  0  0  0  0  0  0  0  0  0  0  0
    2.2997    0.4171   -0.9760 C   0  0  2  0  0  0  0  0  0  0  0  0
    2.1907   -0.6209   -2.0119 N   0  0  0  0  0  0  0  0  0  0  0  0
    3.7614    0.6688   -0.6596 C   0  0  0  0  0  0  0  0  0  0  0  0
    4.1691    1.8628   -0.6658 O   0  0  0  0  0  0  0  0  0  0  0  0
    4.6828   -0.3804   -0.2922 N   0  0  0  0  0  0  0  0  0  0  0  0
    4.4973   -1.8016   -0.5468 C   0  0  0  0  0  0  0  0  0  0  0  0
    5.6984   -2.4952    0.0812 C   0  0  0  0  0  0  0  0  0  0  0  0
    6.7495   -1.4073    0.2738 C   0  0  2  0  0  0  0  0  0  0  0  0
    7.4440   -1.5904    1.4578 F   0  0  0  0  0  0  0  0  0  0  0  0
    5.9859   -0.0895    0.2847 C   0  0  0  0  0  0  0  0  0  0  0  0
   -0.7327    0.2777   -0.9919 C   0  0  0  0  0  0  0  0  0  0  0  0
   -2.1009    0.0187   -1.1052 C   0  0  0  0  0  0  0  0  0  0  0  0
   -4.6622   -2.3322   -0.2562 C   0  0  0  0  0  0  0  0  0  0  0  0
   -6.0228   -2.6380   -0.3977 C   0  0  0  0  0  0  0  0  0  0  0  0
   -6.9109   -1.5764   -0.5108 C   0  0  0  0  0  0  0  0  0  0  0  0
   -8.2442   -1.6625   -0.6637 N   0  0  0  0  0  0  0  0  0  0  0  0
   -8.5936   -0.3516   -0.7166 C   0  0  0  0  0  0  0  0  0  0  0  0
   -7.5351    0.4839   -0.6018 N   0  0  0  0  0  0  0  0  0  0  0  0
   -6.4883   -0.3087   -0.4737 N   0  0  0  0  0  0  0  0  0  0  0  0
    0.7617   -0.0130   -1.5421 O   0  0  0  0  0  0  0  0  0  0  0  0
    0.4724    0.0043   -0.3157 C   0  0  0  0  0  0  0  0  0  0  0  0
    1.4850   -0.0639    0.6365 O   0  0  0  0  0  0  0  0  0  0  0  0
   -0.9582    0.0381    0.1147 C   0  0  0  0  0  0  0  0  0  0  0  0
   -1.4748   -1.2435    0.0899 F   0  0  0  0  0  0  0  0  0  0  0  0
   -1.6903    0.8420   -0.7403 F   0  0  0  0  0  0  0  0  0  0  0  0
   -1.0539    0.5425    1.3988 F   0  0  0  0  0  0  0  0  0  0  0  0
   -5.6459    2.1240    0.1122 H   0  0  0  0  0  0  0  0  0  0  0  0
   -3.9448    1.6711    0.4194 H   0  0  0  0  0  0  0  0  0  0  0  0
   -4.5346    1.8632   -1.2844 H   0  0  0  0  0  0  0  0  0  0  0  0
   -2.5457   -1.7774    1.7528 H   0  0  0  0  0  0  0  0  0  0  0  0
   -0.1466   -1.3252    1.9594 H   0  0  0  0  0  0  0  0  0  0  0  0
    1.9125   -0.8822    0.6868 H   0  0  0  0  0  0  0  0  0  0  0  0
    3.3414    3.2834    1.7189 H   0  0  0  0  0  0  0  0  0  0  0  0
    2.1464    3.3307    3.0776 H   0  0  0  0  0  0  0  0  0  0  0  0
    2.0274    4.5059    1.7148 H   0  0  0  0  0  0  0  0  0  0  0  0
   -0.6555    2.4226    0.8940 H   0  0  0  0  0  0  0  0  0  0  0  0
    0.0594    4.0522    0.7341 H   0  0  0  0  0  0  0  0  0  0  0  0
    0.3780    2.8426   -0.5431 H   0  0  0  0  0  0  0  0  0  0  0  0
    1.9060    1.3687   -1.3941 H   0  0  0  0  0  0  0  0  0  0  0  0
    1.5330   -0.3032   -2.7599 H   0  0  0  0  0  0  0  0  0  0  0  0
    1.8008   -1.5085   -1.6203 H   0  0  0  0  0  0  0  0  0  0  0  0
    4.4811   -1.9855   -1.6426 H   0  0  0  0  0  0  0  0  0  0  0  0
    3.5653   -2.1779   -0.0811 H   0  0  0  0  0  0  0  0  0  0  0  0
    5.4082   -2.9173    1.0690 H   0  0  0  0  0  0  0  0  0  0  0  0
    6.0783   -3.3145   -0.5672 H   0  0  0  0  0  0  0  0  0  0  0  0
    7.4623   -1.4224   -0.5801 H   0  0  0  0  0  0  0  0  0  0  0  0
    6.5236    0.6694   -0.3247 H   0  0  0  0  0  0  0  0  0  0  0  0
    5.8535    0.2869    1.3224 H   0  0  0  0  0  0  0  0  0  0  0  0
   -0.2664    0.8641   -1.7683 H   0  0  0  0  0  0  0  0  0  0  0  0
   -2.6384    0.3880   -1.9697 H   0  0  0  0  0  0  0  0  0  0  0  0
   -3.9476   -3.1429   -0.1824 H   0  0  0  0  0  0  0  0  0  0  0  0
   -6.3661   -3.6641   -0.4258 H   0  0  0  0  0  0  0  0  0  0  0  0
   -9.6127   -0.0101   -0.8373 H   0  0  0  0  0  0  0  0  0  0  0  0
    2.4581   -0.1066    0.3581 H   0  0  0  0  0  0  0  0  0  0  0  0
  1  2  1  0
  2  3  2  0
  3  4  1  0
  4  5  2  0
  5  6  1  0
  6  7  2  0
  7  8  1  0
  8  9  1  0
  9 10  2  0
  9 11  1  0
 11 12  1  0
 11 13  1  0
  8 14  1  0
 14 15  1  0
 14 16  1  0
 16 17  2  0
 16 18  1  0
 18 19  1  0
 19 20  1  0
 20 21  1  0
 21 22  1  0
 21 23  1  0
  7 24  1  0
 24 25  2  0
  3 26  1  0
 26 27  2  0
 27 28  1  0
 28 29  2  0
 29 30  1  0
 30 31  2  0
 31 32  1  0
 33 34  2  0
 34 35  1  0
 34 36  1  0
 36 37  1  0
 36 38  1  0
 36 39  1  0
 32  2  1  0
 25  4  1  0
 32 28  1  0
 23 18  1  0
  1 40  1  0
  1 41  1  0
  1 42  1  0
  5 43  1  0
  6 44  1  0
  8 45  1  1
 12 46  1  0
 12 47  1  0
 12 48  1  0
 13 49  1  0
 13 50  1  0
 13 51  1  0
 14 52  1  6
 15 53  1  0
 15 54  1  0
 19 55  1  0
 19 56  1  0
 20 57  1  0
 20 58  1  0
 21 59  1  6
 23 60  1  0
 23 61  1  0
 24 62  1  0
 25 63  1  0
 26 64  1  0
 27 65  1  0
 30 66  1  0
 35 67  1  0
M  END
$$$$
