
     RDKit          3D

 48 51  0  0  0  0  0  0  0  0999 V2000
   -1.8883    6.3422   -1.1269 C   0  0  0  0  0  0  0  0  0  0  0  0
   -1.7026    4.8986   -1.4906 C   0  0  0  0  0  0  0  0  0  0  0  0
   -2.5998    4.2714   -2.3685 C   0  0  0  0  0  0  0  0  0  0  0  0
   -2.4505    2.9182   -2.6821 C   0  0  0  0  0  0  0  0  0  0  0  0
   -1.4130    2.1756   -2.1098 C   0  0  0  0  0  0  0  0  0  0  0  0
   -1.2663    0.8659   -2.4215 N   0  0  0  0  0  0  0  0  0  0  0  0
   -0.2779    0.1099   -1.8763 C   0  0  0  0  0  0  0  0  0  0  0  0
   -0.1927   -1.3449   -2.2566 C   0  0  0  0  0  0  0  0  0  0  0  0
   -0.4296   -2.1965   -1.0927 N   0  0  0  0  0  0  0  0  0  0  0  0
   -1.7069   -2.3136   -0.4549 C   0  0  0  0  0  0  0  0  0  0  0  0
   -1.8996   -3.0467    0.6618 N   0  0  0  0  0  0  0  0  0  0  0  0
   -3.1963   -3.0041    1.0720 C   0  0  0  0  0  0  0  0  0  0  0  0
   -3.6534   -3.7003    2.3113 C   0  0  0  0  0  0  0  0  0  0  0  0
   -4.0416   -2.2206    0.2897 C   0  0  0  0  0  0  0  0  0  0  0  0
   -3.1318   -1.5774   -0.9703 S   0  0  0  0  0  0  0  0  0  0  0  0
    0.5948    0.6628   -0.9753 N   0  0  0  0  0  0  0  0  0  0  0  0
    1.6137   -0.1485   -0.4327 N   0  0  0  0  0  0  0  0  0  0  0  0
    1.8901   -0.1944    0.8357 C   0  0  0  0  0  0  0  0  0  0  0  0
    2.9600   -1.0728    1.3474 C   0  0  0  0  0  0  0  0  0  0  0  0
    3.2313   -1.0989    2.7248 C   0  0  0  0  0  0  0  0  0  0  0  0
    4.2373   -1.9270    3.2322 C   0  0  0  0  0  0  0  0  0  0  0  0
    4.9824   -2.7383    2.3711 C   0  0  0  0  0  0  0  0  0  0  0  0
    5.9813   -3.5584    2.8908 O   0  0  0  0  0  0  0  0  0  0  0  0
    4.7173   -2.7189    0.9955 C   0  0  0  0  0  0  0  0  0  0  0  0
    3.7122   -1.8918    0.4847 C   0  0  0  0  0  0  0  0  0  0  0  0
    0.5056    1.9964   -0.6590 C   0  0  0  0  0  0  0  0  0  0  0  0
    1.3564    2.5240    0.1105 O   0  0  0  0  0  0  0  0  0  0  0  0
   -0.5185    2.7848   -1.2120 C   0  0  0  0  0  0  0  0  0  0  0  0
   -0.6707    4.1496   -0.9023 C   0  0  0  0  0  0  0  0  0  0  0  0
   -2.3606    6.9005   -1.9632 H   0  0  0  0  0  0  0  0  0  0  0  0
   -2.5378    6.4161   -0.2299 H   0  0  0  0  0  0  0  0  0  0  0  0
   -0.9096    6.8192   -0.9063 H   0  0  0  0  0  0  0  0  0  0  0  0
   -3.4142    4.8309   -2.8120 H   0  0  0  0  0  0  0  0  0  0  0  0
   -3.1444    2.4478   -3.3680 H   0  0  0  0  0  0  0  0  0  0  0  0
   -0.9279   -1.5890   -3.0538 H   0  0  0  0  0  0  0  0  0  0  0  0
    0.8201   -1.5496   -2.6655 H   0  0  0  0  0  0  0  0  0  0  0  0
    0.3701   -2.7476   -0.7067 H   0  0  0  0  0  0  0  0  0  0  0  0
   -2.9334   -4.4983    2.5903 H   0  0  0  0  0  0  0  0  0  0  0  0
   -4.6494   -4.1620    2.1440 H   0  0  0  0  0  0  0  0  0  0  0  0
   -3.7238   -2.9682    3.1425 H   0  0  0  0  0  0  0  0  0  0  0  0
   -5.0962   -2.0516    0.4628 H   0  0  0  0  0  0  0  0  0  0  0  0
    1.3056    0.3878    1.5385 H   0  0  0  0  0  0  0  0  0  0  0  0
    2.6645   -0.4783    3.4083 H   0  0  0  0  0  0  0  0  0  0  0  0
    4.4377   -1.9385    4.2960 H   0  0  0  0  0  0  0  0  0  0  0  0
    6.5384   -4.1579    2.2931 H   0  0  0  0  0  0  0  0  0  0  0  0
    5.2887   -3.3446    0.3216 H   0  0  0  0  0  0  0  0  0  0  0  0
    3.5239   -1.8957   -0.5816 H   0  0  0  0  0  0  0  0  0  0  0  0
    0.0056    4.6324   -0.2064 H   0  0  0  0  0  0  0  0  0  0  0  0
  1  2  1  0
  2  3  2  0
  3  4  1  0
  4  5  2  0
  5  6  1  0
  6  7  2  0
  7  8  1  0
  8  9  1  0
  9 10  1  0
 10 11  2  0
 11 12  1  0
 12 13  1  0
 12 14  2  0
 14 15  1  0
  7 16  1  0
 16 17  1  0
 17 18  2  0
 18 19  1  0
 19 20  2  0
 20 21  1  0
 21 22  2  0
 22 23  1  0
 22 24  1  0
 24 25  2  0
 16 26  1  0
 26 27  2  0
 26 28  1  0
 28 29  2  0
 29  2  1  0
 28  5  1  0
 15 10  1  0
 25 19  1  0
  1 30  1  0
  1 31  1  0
  1 32  1  0
  3 33  1  0
  4 34  1  0
  8 35  1  0
  8 36  1  0
  9 37  1  0
 13 38  1  0
 13 39  1  0
 13 40  1  0
 14 41  1  0
 18 42  1  0
 20 43  1  0
 21 44  1  0
 23 45  1  0
 24 46  1  0
 25 47  1  0
 29 48  1  0
M  END
$$$$
