
     RDKit          3D

 59 62  0  0  0  0  0  0  0  0999 V2000
    5.5563    1.2184    1.7023 C   0  0  0  0  0  0  0  0  0  0  0  0
    4.7536    1.7706    0.5274 C   0  0  0  0  0  0  0  0  0  0  0  0
    3.6375    0.8604    0.1814 N   0  0  0  0  0  0  0  0  0  0  0  0
    2.3976    1.1016    0.7464 C   0  0  0  0  0  0  0  0  0  0  0  0
    2.2351    2.0565    1.5533 O   0  0  0  0  0  0  0  0  0  0  0  0
    1.3202    0.2722    0.4125 C   0  0  0  0  0  0  0  0  0  0  0  0
    1.4831   -0.7631   -0.4543 C   0  0  0  0  0  0  0  0  0  0  0  0
    0.3161   -1.4017   -0.6627 N   0  0  0  0  0  0  0  0  0  0  0  0
   -0.5465   -0.7129    0.1207 C   0  0  0  0  0  0  0  0  0  0  0  0
   -1.9465   -1.0075    0.1565 N   0  0  0  0  0  0  0  0  0  0  0  0
   -2.7932   -0.6244   -0.9772 C   0  0  0  0  0  0  0  0  0  0  0  0
   -3.5086   -1.8591   -1.5358 C   0  0  0  0  0  0  0  0  0  0  0  0
   -4.1802   -2.7265   -0.4435 C   0  0  0  0  0  0  0  0  0  0  0  0
   -3.9504   -2.2046    0.9937 C   0  0  1  0  0  0  0  0  0  0  0  0
   -4.4080   -3.1744    1.9908 N   0  0  0  0  0  0  0  0  0  0  0  0
   -2.4662   -1.8732    1.2216 C   0  0  0  0  0  0  0  0  0  0  0  0
    0.0241    0.3162    0.7986 N   0  0  0  0  0  0  0  0  0  0  0  0
   -0.6797    1.2927    1.6406 C   0  0  0  0  0  0  0  0  0  0  0  0
   -1.4652    2.2637    0.7875 C   0  0  0  0  0  0  0  0  0  0  0  0
   -0.7834    3.0166   -0.1862 C   0  0  0  0  0  0  0  0  0  0  0  0
   -1.4722    3.9159   -1.0026 C   0  0  0  0  0  0  0  0  0  0  0  0
   -2.8484    4.0839   -0.8522 C   0  0  0  0  0  0  0  0  0  0  0  0
   -3.5383    3.3583    0.1201 C   0  0  0  0  0  0  0  0  0  0  0  0
   -2.8595    2.4537    0.9464 C   0  0  0  0  0  0  0  0  0  0  0  0
   -3.8018    1.5889    2.1574 Cl  0  0  0  0  0  0  0  0  0  0  0  0
    2.7177   -1.0596   -1.0184 C   0  0  0  0  0  0  0  0  0  0  0  0
    2.8786   -2.1450   -1.8935 C   0  0  0  0  0  0  0  0  0  0  0  0
    4.1341   -2.4343   -2.4230 C   0  0  0  0  0  0  0  0  0  0  0  0
    5.2343   -1.6513   -2.0799 C   0  0  0  0  0  0  0  0  0  0  0  0
    5.0894   -0.5641   -1.2135 C   0  0  0  0  0  0  0  0  0  0  0  0
    3.8234   -0.2288   -0.6699 C   0  0  0  0  0  0  0  0  0  0  0  0
    0.6878    0.0000    0.0000 Cl  0  0  0  0  0  0  0  0  0  0  0  0
    5.9740    0.2200    1.4573 H   0  0  0  0  0  0  0  0  0  0  0  0
    4.9044    1.1263    2.5966 H   0  0  0  0  0  0  0  0  0  0  0  0
    6.3936    1.9078    1.9394 H   0  0  0  0  0  0  0  0  0  0  0  0
    5.4099    1.9586   -0.3465 H   0  0  0  0  0  0  0  0  0  0  0  0
    4.3808    2.7825    0.7974 H   0  0  0  0  0  0  0  0  0  0  0  0
   -2.1901   -0.1474   -1.7814 H   0  0  0  0  0  0  0  0  0  0  0  0
   -3.5465    0.1182   -0.6390 H   0  0  0  0  0  0  0  0  0  0  0  0
   -4.2704   -1.5304   -2.2757 H   0  0  0  0  0  0  0  0  0  0  0  0
   -2.7633   -2.4774   -2.0828 H   0  0  0  0  0  0  0  0  0  0  0  0
   -5.2743   -2.7747   -0.6355 H   0  0  0  0  0  0  0  0  0  0  0  0
   -3.7887   -3.7646   -0.5259 H   0  0  0  0  0  0  0  0  0  0  0  0
   -4.5388   -1.2692    1.1271 H   0  0  0  0  0  0  0  0  0  0  0  0
   -5.4328   -3.3343    1.8543 H   0  0  0  0  0  0  0  0  0  0  0  0
   -3.9266   -4.0901    1.8339 H   0  0  0  0  0  0  0  0  0  0  0  0
   -2.3510   -1.3697    2.2041 H   0  0  0  0  0  0  0  0  0  0  0  0
   -1.8752   -2.8154    1.2424 H   0  0  0  0  0  0  0  0  0  0  0  0
   -1.3280    0.7431    2.3479 H   0  0  0  0  0  0  0  0  0  0  0  0
    0.0190    1.8577    2.2836 H   0  0  0  0  0  0  0  0  0  0  0  0
    0.2845    2.9048   -0.3193 H   0  0  0  0  0  0  0  0  0  0  0  0
   -0.9374    4.4839   -1.7528 H   0  0  0  0  0  0  0  0  0  0  0  0
   -3.3806    4.7811   -1.4863 H   0  0  0  0  0  0  0  0  0  0  0  0
   -4.6055    3.5018    0.2325 H   0  0  0  0  0  0  0  0  0  0  0  0
    2.0374   -2.7724   -2.1624 H   0  0  0  0  0  0  0  0  0  0  0  0
    4.2570   -3.2739   -3.0949 H   0  0  0  0  0  0  0  0  0  0  0  0
    6.2093   -1.8902   -2.4852 H   0  0  0  0  0  0  0  0  0  0  0  0
    5.9862   -0.0153   -0.9732 H   0  0  0  0  0  0  0  0  0  0  0  0
   -0.6878    0.0000    0.0000 H   0  0  0  0  0  0  0  0  0  0  0  0
  1  2  1  0
  2  3  1  0
  3  4  1  0
  4  5  2  0
  4  6  1  0
  6  7  2  0
  7  8  1  0
  8  9  2  0
  9 10  1  0
 10 11  1  0
 11 12  1  0
 12 13  1  0
 13 14  1  0
 14 15  1  0
 14 16  1  0
  9 17  1  0
 17 18  1  0
 18 19  1  0
 19 20  2  0
 20 21  1  0
 21 22  2  0
 22 23  1  0
 23 24  2  0
 24 25  1  0
  7 26  1  0
 26 27  2  0
 27 28  1  0
 28 29  2  0
 29 30  1  0
 30 31  2  0
 31  3  1  0
 17  6  1  0
 24 19  1  0
 31 26  1  0
 16 10  1  0
  1 33  1  0
  1 34  1  0
  1 35  1  0
  2 36  1  0
  2 37  1  0
 11 38  1  0
 11 39  1  0
 12 40  1  0
 12 41  1  0
 13 42  1  0
 13 43  1  0
 14 44  1  6
 15 45  1  0
 15 46  1  0
 16 47  1  0
 16 48  1  0
 18 49  1  0
 18 50  1  0
 20 51  1  0
 21 52  1  0
 22 53  1  0
 23 54  1  0
 27 55  1  0
 28 56  1  0
 29 57  1  0
 30 58  1  0
 32 59  1  0
M  END
$$$$
