
     RDKit          3D

 31 31  0  0  0  0  0  0  0  0999 V2000
    2.4486    2.0031   -0.5637 C   0  0  0  0  0  0  0  0  0  0  0  0
    1.9312    0.5582   -0.3808 C   0  0  0  0  0  0  0  0  0  0  0  0
    2.8137   -0.4021   -1.1961 C   0  0  0  0  0  0  0  0  0  0  0  0
    2.0036    0.1952    1.0405 N   0  0  0  0  0  0  0  0  0  0  0  0
    0.4930    0.4561   -0.8713 C   0  0  0  0  0  0  0  0  0  0  0  0
    0.1378    1.1237   -1.8820 O   0  0  0  0  0  0  0  0  0  0  0  0
   -0.4783   -0.3885   -0.2207 N   0  0  0  0  0  0  0  0  0  0  0  0
   -0.2040   -1.7578    0.1905 C   0  0  0  0  0  0  0  0  0  0  0  0
   -1.5643   -2.4269    0.3396 C   0  0  0  0  0  0  0  0  0  0  0  0
   -2.5745   -1.2906    0.4491 C   0  0  0  0  0  0  0  0  0  0  0  0
   -1.9043   -0.0889   -0.2200 C   0  0  1  0  0  0  0  0  0  0  0  0
   -2.2062    1.2858    0.5514 B   0  0  0  0  0  0  0  0  0  0  0  0
   -2.9247    2.3599   -0.1289 O   0  0  0  0  0  0  0  0  0  0  0  0
   -1.7067    1.4934    1.9092 O   0  0  0  0  0  0  0  0  0  0  0  0
    2.4672    2.2869   -1.6382 H   0  0  0  0  0  0  0  0  0  0  0  0
    1.7955    2.7201   -0.0207 H   0  0  0  0  0  0  0  0  0  0  0  0
    3.4812    2.1023   -0.1651 H   0  0  0  0  0  0  0  0  0  0  0  0
    2.5171   -1.4564   -1.0215 H   0  0  0  0  0  0  0  0  0  0  0  0
    2.7301   -0.1857   -2.2832 H   0  0  0  0  0  0  0  0  0  0  0  0
    3.8797   -0.2968   -0.8999 H   0  0  0  0  0  0  0  0  0  0  0  0
    1.4263    0.8658    1.6000 H   0  0  0  0  0  0  0  0  0  0  0  0
    2.9904    0.2843    1.3779 H   0  0  0  0  0  0  0  0  0  0  0  0
    0.3316   -1.7644    1.1628 H   0  0  0  0  0  0  0  0  0  0  0  0
    0.3929   -2.2883   -0.5810 H   0  0  0  0  0  0  0  0  0  0  0  0
   -1.5966   -3.0874    1.2333 H   0  0  0  0  0  0  0  0  0  0  0  0
   -1.7850   -3.0307   -0.5683 H   0  0  0  0  0  0  0  0  0  0  0  0
   -2.7804   -1.1055    1.5274 H   0  0  0  0  0  0  0  0  0  0  0  0
   -3.5292   -1.5529   -0.0569 H   0  0  0  0  0  0  0  0  0  0  0  0
   -2.2632   -0.0062   -1.2696 H   0  0  0  0  0  0  0  0  0  0  0  0
   -3.8777    2.1994    0.0878 H   0  0  0  0  0  0  0  0  0  0  0  0
   -2.4447    1.1950    2.4984 H   0  0  0  0  0  0  0  0  0  0  0  0
  1  2  1  0
  2  3  1  0
  2  4  1  0
  2  5  1  0
  5  6  2  0
  5  7  1  0
  7  8  1  0
  8  9  1  0
  9 10  1  0
 10 11  1  0
 11 12  1  0
 12 13  1  0
 12 14  1  0
 11  7  1  0
  1 15  1  0
  1 16  1  0
  1 17  1  0
  3 18  1  0
  3 19  1  0
  3 20  1  0
  4 21  1  0
  4 22  1  0
  8 23  1  0
  8 24  1  0
  9 25  1  0
  9 26  1  0
 10 27  1  0
 10 28  1  0
 11 29  1  6
 13 30  1  0
 14 31  1  0
M  END
$$$$
