
     RDKit          3D

 57 60  0  0  0  0  0  0  0  0999 V2000
    3.3167   -2.3490   -2.1263 N   0  0  0  0  0  0  0  0  0  0  0  0
    3.4219   -1.1399   -1.3014 C   0  0  2  0  0  0  0  0  0  0  0  0
    4.3805   -1.3749   -0.1515 C   0  0  0  0  0  0  0  0  0  0  0  0
    4.4545   -2.5254    0.3617 O   0  0  0  0  0  0  0  0  0  0  0  0
    5.1697   -0.3046    0.4019 N   0  0  0  0  0  0  0  0  0  0  0  0
    5.1991    1.0551   -0.1125 C   0  0  0  0  0  0  0  0  0  0  0  0
    6.0342    1.8519    0.8805 C   0  0  0  0  0  0  0  0  0  0  0  0
    6.8075    0.8209    1.6978 C   0  0  0  0  0  0  0  0  0  0  0  0
    6.0440   -0.4880    1.5474 C   0  0  0  0  0  0  0  0  0  0  0  0
    2.0326   -0.6918   -0.7625 C   0  0  1  0  0  0  0  0  0  0  0  0
    1.1741   -0.0465   -1.8720 C   0  0  0  0  0  0  0  0  0  0  0  0
   -0.1642    0.4493   -1.3102 C   0  0  0  0  0  0  0  0  0  0  0  0
   -0.9411   -0.6996   -0.6416 C   0  0  2  0  0  0  0  0  0  0  0  0
   -2.1974   -0.1983   -0.0779 N   0  0  0  0  0  0  0  0  0  0  0  0
   -3.3194   -1.0562    0.1795 C   0  0  0  0  0  0  0  0  0  0  0  0
   -3.2128   -2.3033    0.0254 O   0  0  0  0  0  0  0  0  0  0  0  0
   -4.5915   -0.4950    0.6826 C   0  0  0  0  0  0  0  0  0  0  0  0
   -5.1379   -1.0499    1.8511 C   0  0  0  0  0  0  0  0  0  0  0  0
   -6.3010   -0.5257    2.4140 C   0  0  0  0  0  0  0  0  0  0  0  0
   -6.9440    0.5574    1.8185 C   0  0  0  0  0  0  0  0  0  0  0  0
   -6.4392    1.1158    0.6360 C   0  0  0  0  0  0  0  0  0  0  0  0
   -7.1073    2.1905    0.0280 C   0  0  0  0  0  0  0  0  0  0  0  0
   -6.6309    2.7294   -1.1675 C   0  0  0  0  0  0  0  0  0  0  0  0
   -5.4935    2.1954   -1.7722 C   0  0  0  0  0  0  0  0  0  0  0  0
   -4.8145    1.1282   -1.1793 C   0  0  0  0  0  0  0  0  0  0  0  0
   -5.2599    0.5847    0.0455 C   0  0  0  0  0  0  0  0  0  0  0  0
   -0.0918   -1.3487    0.4652 C   0  0  0  0  0  0  0  0  0  0  0  0
    1.2524   -1.8428   -0.0859 C   0  0  0  0  0  0  0  0  0  0  0  0
    4.2780   -2.6212   -2.4379 H   0  0  0  0  0  0  0  0  0  0  0  0
    2.7985   -2.1143   -3.0027 H   0  0  0  0  0  0  0  0  0  0  0  0
    3.8375   -0.3272   -1.9372 H   0  0  0  0  0  0  0  0  0  0  0  0
    4.1732    1.4760   -0.1768 H   0  0  0  0  0  0  0  0  0  0  0  0
    5.6787    1.0643   -1.1152 H   0  0  0  0  0  0  0  0  0  0  0  0
    6.7212    2.5545    0.3609 H   0  0  0  0  0  0  0  0  0  0  0  0
    5.3627    2.4290    1.5539 H   0  0  0  0  0  0  0  0  0  0  0  0
    6.8841    1.1251    2.7643 H   0  0  0  0  0  0  0  0  0  0  0  0
    7.8306    0.7067    1.2763 H   0  0  0  0  0  0  0  0  0  0  0  0
    6.7472   -1.3307    1.3694 H   0  0  0  0  0  0  0  0  0  0  0  0
    5.4325   -0.6900    2.4535 H   0  0  0  0  0  0  0  0  0  0  0  0
    2.2079    0.0934    0.0079 H   0  0  0  0  0  0  0  0  0  0  0  0
    1.7174    0.8181   -2.3116 H   0  0  0  0  0  0  0  0  0  0  0  0
    0.9718   -0.7757   -2.6854 H   0  0  0  0  0  0  0  0  0  0  0  0
   -0.7724    0.8715   -2.1396 H   0  0  0  0  0  0  0  0  0  0  0  0
    0.0239    1.2628   -0.5747 H   0  0  0  0  0  0  0  0  0  0  0  0
   -1.1713   -1.4596   -1.4225 H   0  0  0  0  0  0  0  0  0  0  0  0
   -2.2796    0.8153    0.1666 H   0  0  0  0  0  0  0  0  0  0  0  0
   -4.6458   -1.8793    2.3451 H   0  0  0  0  0  0  0  0  0  0  0  0
   -6.7015   -0.9569    3.3225 H   0  0  0  0  0  0  0  0  0  0  0  0
   -7.8437    0.9518    2.2761 H   0  0  0  0  0  0  0  0  0  0  0  0
   -8.0023    2.6084    0.4736 H   0  0  0  0  0  0  0  0  0  0  0  0
   -7.1525    3.5556   -1.6333 H   0  0  0  0  0  0  0  0  0  0  0  0
   -5.1393    2.6059   -2.7091 H   0  0  0  0  0  0  0  0  0  0  0  0
   -3.9564    0.7257   -1.6990 H   0  0  0  0  0  0  0  0  0  0  0  0
   -0.6392   -2.2121    0.9005 H   0  0  0  0  0  0  0  0  0  0  0  0
    0.0890   -0.6142    1.2811 H   0  0  0  0  0  0  0  0  0  0  0  0
    1.0652   -2.6633   -0.8128 H   0  0  0  0  0  0  0  0  0  0  0  0
    1.8436   -2.2586    0.7571 H   0  0  0  0  0  0  0  0  0  0  0  0
  1  2  1  0
  2  3  1  0
  3  4  2  0
  3  5  1  0
  5  6  1  0
  6  7  1  0
  7  8  1  0
  8  9  1  0
  2 10  1  0
 10 11  1  0
 11 12  1  0
 12 13  1  0
 13 14  1  0
 14 15  1  0
 15 16  2  0
 15 17  1  0
 17 18  2  0
 18 19  1  0
 19 20  2  0
 20 21  1  0
 21 22  2  0
 22 23  1  0
 23 24  2  0
 24 25  1  0
 25 26  2  0
 13 27  1  0
 27 28  1  0
  9  5  1  0
 28 10  1  0
 26 17  1  0
 26 21  1  0
  1 29  1  0
  1 30  1  0
  2 31  1  6
  6 32  1  0
  6 33  1  0
  7 34  1  0
  7 35  1  0
  8 36  1  0
  8 37  1  0
  9 38  1  0
  9 39  1  0
 10 40  1  1
 11 41  1  0
 11 42  1  0
 12 43  1  0
 12 44  1  0
 13 45  1  6
 14 46  1  0
 18 47  1  0
 19 48  1  0
 20 49  1  0
 22 50  1  0
 23 51  1  0
 24 52  1  0
 25 53  1  0
 27 54  1  0
 27 55  1  0
 28 56  1  0
 28 57  1  0
M  END
$$$$
