
     RDKit          3D

 52 54  0  0  0  0  0  0  0  0999 V2000
    2.7894   -2.2924    1.7622 N   0  0  0  0  0  0  0  0  0  0  0  0
    3.0081   -1.4346    0.5944 C   0  0  1  0  0  0  0  0  0  0  0  0
    1.6849   -1.2430   -0.1897 C   0  0  0  0  0  0  0  0  0  0  0  0
    0.5016   -0.8610    0.6612 C   0  0  0  0  0  0  0  0  0  0  0  0
    0.6066    0.0418    1.5335 O   0  0  0  0  0  0  0  0  0  0  0  0
   -0.7736   -1.4861    0.4318 N   0  0  0  0  0  0  0  0  0  0  0  0
   -0.9539   -2.8631    0.8918 C   0  0  0  0  0  0  0  0  0  0  0  0
   -1.7017   -2.8391    2.2318 C   0  0  0  0  0  0  0  0  0  0  0  0
   -2.9641   -2.0871    2.1281 N   0  0  0  0  0  0  0  0  0  0  0  0
   -2.7447   -0.7105    1.6501 C   0  0  0  0  0  0  0  0  0  0  0  0
   -2.0168   -0.7088    0.2905 C   0  0  1  0  0  0  0  0  0  0  0  0
   -1.7766    0.7190   -0.2558 C   0  0  0  0  0  0  0  0  0  0  0  0
   -3.0592    1.3640   -0.7171 C   0  0  0  0  0  0  0  0  0  0  0  0
   -3.6041    1.0355   -1.9698 C   0  0  0  0  0  0  0  0  0  0  0  0
   -4.8051    1.6154   -2.3900 C   0  0  0  0  0  0  0  0  0  0  0  0
   -5.4726    2.5227   -1.5622 C   0  0  0  0  0  0  0  0  0  0  0  0
   -6.6377    3.0829   -1.9708 F   0  0  0  0  0  0  0  0  0  0  0  0
   -4.9402    2.8500   -0.3118 C   0  0  0  0  0  0  0  0  0  0  0  0
   -3.7393    2.2725    0.1119 C   0  0  0  0  0  0  0  0  0  0  0  0
    3.6675   -0.1040    1.0311 C   0  0  0  0  0  0  0  0  0  0  0  0
    4.0243    0.7772   -0.1427 C   0  0  0  0  0  0  0  0  0  0  0  0
    5.1361    0.4576   -0.9412 C   0  0  0  0  0  0  0  0  0  0  0  0
    5.4661    1.2509   -2.0438 C   0  0  0  0  0  0  0  0  0  0  0  0
    4.6889    2.3672   -2.3608 C   0  0  0  0  0  0  0  0  0  0  0  0
    3.5799    2.6925   -1.5760 C   0  0  0  0  0  0  0  0  0  0  0  0
    3.2441    1.9037   -0.4706 C   0  0  0  0  0  0  0  0  0  0  0  0
    2.1577    2.2368    0.2711 F   0  0  0  0  0  0  0  0  0  0  0  0
    2.4510   -3.2234    1.4264 H   0  0  0  0  0  0  0  0  0  0  0  0
    3.7128   -2.4759    2.2183 H   0  0  0  0  0  0  0  0  0  0  0  0
    3.7225   -1.9511   -0.0877 H   0  0  0  0  0  0  0  0  0  0  0  0
    1.4522   -2.1988   -0.7073 H   0  0  0  0  0  0  0  0  0  0  0  0
    1.8078   -0.4863   -0.9915 H   0  0  0  0  0  0  0  0  0  0  0  0
   -1.5476   -3.4303    0.1425 H   0  0  0  0  0  0  0  0  0  0  0  0
    0.0215   -3.3808    1.0137 H   0  0  0  0  0  0  0  0  0  0  0  0
   -1.9202   -3.8817    2.5481 H   0  0  0  0  0  0  0  0  0  0  0  0
   -1.0564   -2.3789    3.0121 H   0  0  0  0  0  0  0  0  0  0  0  0
   -3.5959   -2.5816    1.4546 H   0  0  0  0  0  0  0  0  0  0  0  0
   -2.1520   -0.1456    2.4028 H   0  0  0  0  0  0  0  0  0  0  0  0
   -3.7304   -0.2077    1.5521 H   0  0  0  0  0  0  0  0  0  0  0  0
   -2.6636   -1.2413   -0.4436 H   0  0  0  0  0  0  0  0  0  0  0  0
   -1.2949    1.3560    0.5167 H   0  0  0  0  0  0  0  0  0  0  0  0
   -1.0761    0.6679   -1.1183 H   0  0  0  0  0  0  0  0  0  0  0  0
   -3.0994    0.3298   -2.6181 H   0  0  0  0  0  0  0  0  0  0  0  0
   -5.2185    1.3590   -3.3569 H   0  0  0  0  0  0  0  0  0  0  0  0
   -5.4587    3.5494    0.3313 H   0  0  0  0  0  0  0  0  0  0  0  0
   -3.3425    2.5297    1.0862 H   0  0  0  0  0  0  0  0  0  0  0  0
    3.0245    0.4378    1.7537 H   0  0  0  0  0  0  0  0  0  0  0  0
    4.6050   -0.3344    1.5834 H   0  0  0  0  0  0  0  0  0  0  0  0
    5.7458   -0.4070   -0.7096 H   0  0  0  0  0  0  0  0  0  0  0  0
    6.3240    0.9988   -2.6537 H   0  0  0  0  0  0  0  0  0  0  0  0
    4.9452    2.9797   -3.2156 H   0  0  0  0  0  0  0  0  0  0  0  0
    2.9783    3.5568   -1.8265 H   0  0  0  0  0  0  0  0  0  0  0  0
  1  2  1  0
  2  3  1  0
  3  4  1  0
  4  5  2  0
  4  6  1  0
  6  7  1  0
  7  8  1  0
  8  9  1  0
  9 10  1  0
 10 11  1  0
 11 12  1  0
 12 13  1  0
 13 14  2  0
 14 15  1  0
 15 16  2  0
 16 17  1  0
 16 18  1  0
 18 19  2  0
  2 20  1  0
 20 21  1  0
 21 22  2  0
 22 23  1  0
 23 24  2  0
 24 25  1  0
 25 26  2  0
 26 27  1  0
 11  6  1  0
 19 13  1  0
 26 21  1  0
  1 28  1  0
  1 29  1  0
  2 30  1  6
  3 31  1  0
  3 32  1  0
  7 33  1  0
  7 34  1  0
  8 35  1  0
  8 36  1  0
  9 37  1  0
 10 38  1  0
 10 39  1  0
 11 40  1  6
 12 41  1  0
 12 42  1  0
 14 43  1  0
 15 44  1  0
 18 45  1  0
 19 46  1  0
 20 47  1  0
 20 48  1  0
 22 49  1  0
 23 50  1  0
 24 51  1  0
 25 52  1  0
M  END
$$$$
