
     RDKit          3D

 32 32  0  0  0  0  0  0  0  0999 V2000
   -3.1777    0.5794    0.3389 C   0  0  0  0  0  0  0  0  0  0  0  0
   -1.9177   -0.3073    0.4030 C   0  0  0  0  0  0  0  0  0  0  0  0
   -2.3387   -1.7754    0.2025 C   0  0  0  0  0  0  0  0  0  0  0  0
   -0.8018    0.1448   -0.6042 C   0  0  1  0  0  0  0  0  0  0  0  0
   -1.3253    0.2229   -1.9771 N   0  0  0  0  0  0  0  0  0  0  0  0
   -0.1342    1.4866   -0.1719 C   0  0  0  0  0  0  0  0  0  0  0  0
    1.1629    1.1041    0.5642 C   0  0  2  0  0  0  0  0  0  0  0  0
    2.5671    2.1806    0.1419 S   0  0  0  0  0  0  0  0  0  0  0  0
    3.6815    0.7393    0.1772 C   0  0  0  0  0  0  0  0  0  0  0  0
    2.8714   -0.4866   -0.2444 C   0  0  1  0  0  0  0  0  0  0  0  0
    3.3558   -1.7035    0.4216 C   0  0  0  0  0  0  0  0  0  0  0  0
    3.7366   -2.6622    0.9459 N   0  0  0  0  0  0  0  0  0  0  0  0
    1.4891   -0.2301    0.1246 N   0  0  0  0  0  0  0  0  0  0  0  0
    0.3757   -0.7801   -0.5552 C   0  0  0  0  0  0  0  0  0  0  0  0
    0.4193   -1.9007   -1.1319 O   0  0  0  0  0  0  0  0  0  0  0  0
    0.6878    0.0000    0.0000 Cl  0  0  0  0  0  0  0  0  0  0  0  0
   -3.7218    0.4273   -0.6175 H   0  0  0  0  0  0  0  0  0  0  0  0
   -3.8658    0.3166    1.1708 H   0  0  0  0  0  0  0  0  0  0  0  0
   -2.9343    1.6549    0.4406 H   0  0  0  0  0  0  0  0  0  0  0  0
   -1.5083   -0.2234    1.4352 H   0  0  0  0  0  0  0  0  0  0  0  0
   -1.5109   -2.4625    0.4740 H   0  0  0  0  0  0  0  0  0  0  0  0
   -2.6381   -1.9587   -0.8514 H   0  0  0  0  0  0  0  0  0  0  0  0
   -3.1955   -2.0280    0.8636 H   0  0  0  0  0  0  0  0  0  0  0  0
   -1.9447    1.0612   -2.0617 H   0  0  0  0  0  0  0  0  0  0  0  0
   -0.5358    0.3796   -2.6468 H   0  0  0  0  0  0  0  0  0  0  0  0
   -0.7705    2.1076    0.4901 H   0  0  0  0  0  0  0  0  0  0  0  0
    0.1123    2.0955   -1.0698 H   0  0  0  0  0  0  0  0  0  0  0  0
    0.9995    1.0990    1.6637 H   0  0  0  0  0  0  0  0  0  0  0  0
    4.5387    0.9024   -0.5100 H   0  0  0  0  0  0  0  0  0  0  0  0
    4.0645    0.6332    1.2163 H   0  0  0  0  0  0  0  0  0  0  0  0
    2.9467   -0.6167   -1.3466 H   0  0  0  0  0  0  0  0  0  0  0  0
   -0.6878    0.0000    0.0000 H   0  0  0  0  0  0  0  0  0  0  0  0
  1  2  1  0
  2  3  1  0
  2  4  1  0
  4  5  1  6
  4  6  1  0
  6  7  1  0
  7  8  1  0
  8  9  1  0
  9 10  1  0
 10 11  1  0
 11 12  3  0
 10 13  1  0
 13 14  1  0
 14 15  2  0
 14  4  1  0
 13  7  1  0
  1 17  1  0
  1 18  1  0
  1 19  1  0
  2 20  1  0
  3 21  1  0
  3 22  1  0
  3 23  1  0
  5 24  1  0
  5 25  1  0
  6 26  1  0
  6 27  1  0
  7 28  1  1
  9 29  1  0
  9 30  1  0
 10 31  1  6
 16 32  1  0
M  END
$$$$
