
     RDKit          3D

 75 77  0  0  0  0  0  0  0  0999 V2000
    9.8518   -0.4260   -2.0937 C   0  0  0  0  0  0  0  0  0  0  0  0
    9.2019   -1.1250   -0.9106 C   0  0  0  0  0  0  0  0  0  0  0  0
    8.0747   -0.3734   -0.4739 O   0  0  0  0  0  0  0  0  0  0  0  0
    7.2803   -0.7648    0.6080 C   0  0  0  0  0  0  0  0  0  0  0  0
    7.5461   -1.8225    1.2437 O   0  0  0  0  0  0  0  0  0  0  0  0
    6.1310    0.1188    1.0324 C   0  0  1  0  0  0  0  0  0  0  0  0
    4.9419   -0.6872    1.3529 N   0  0  0  0  0  0  0  0  0  0  0  0
    3.5913   -0.1796    1.3929 C   0  0  0  0  0  0  0  0  0  0  0  0
    2.5593   -1.0259    1.8308 C   0  0  0  0  0  0  0  0  0  0  0  0
    1.2378   -0.5746    1.8809 C   0  0  0  0  0  0  0  0  0  0  0  0
    0.9227    0.7357    1.4947 C   0  0  0  0  0  0  0  0  0  0  0  0
   -0.5010    1.2216    1.5194 C   0  0  0  0  0  0  0  0  0  0  0  0
   -1.0066    1.3745    0.1575 N   0  0  0  0  0  0  0  0  0  0  0  0
   -1.3151    0.2499   -0.6783 C   0  0  0  0  0  0  0  0  0  0  0  0
   -1.1902   -0.9239   -0.2336 O   0  0  0  0  0  0  0  0  0  0  0  0
   -1.8066    0.4625   -2.0827 C   0  0  1  0  0  0  0  0  0  0  0  0
   -0.7152   -0.4252   -3.2355 S   0  0  0  0  0  0  0  0  0  0  0  0
   -2.1360   -0.9749   -4.2164 C   0  0  0  0  0  0  0  0  0  0  0  0
   -3.3575   -1.0178   -3.3137 C   0  0  0  0  0  0  0  0  0  0  0  0
   -3.1658   -0.0518   -2.2395 N   0  0  0  0  0  0  0  0  0  0  0  0
   -4.2617    0.4588   -1.4490 C   0  0  0  0  0  0  0  0  0  0  0  0
   -4.1103    1.5243   -0.7911 O   0  0  0  0  0  0  0  0  0  0  0  0
   -5.5786   -0.2673   -1.3369 C   0  0  0  0  0  0  0  0  0  0  0  0
   -5.7027   -1.0163    0.0115 C   0  0  2  0  0  0  0  0  0  0  0  0
   -4.7008   -2.0808    0.1216 N   0  0  0  0  0  0  0  0  0  0  0  0
   -7.1039   -1.6351    0.1893 C   0  0  0  0  0  0  0  0  0  0  0  0
   -8.1791   -0.5874    0.3521 C   0  0  0  0  0  0  0  0  0  0  0  0
   -9.0078   -0.2520   -0.7327 C   0  0  0  0  0  0  0  0  0  0  0  0
   -9.9913    0.7320   -0.5932 C   0  0  0  0  0  0  0  0  0  0  0  0
  -10.7841    1.0489   -1.6467 F   0  0  0  0  0  0  0  0  0  0  0  0
  -10.1549    1.3898    0.6295 C   0  0  0  0  0  0  0  0  0  0  0  0
  -11.1080    2.3448    0.7659 F   0  0  0  0  0  0  0  0  0  0  0  0
   -9.3345    1.0645    1.7131 C   0  0  0  0  0  0  0  0  0  0  0  0
   -8.3485    0.0815    1.5790 C   0  0  0  0  0  0  0  0  0  0  0  0
   -7.5620   -0.2184    2.6438 F   0  0  0  0  0  0  0  0  0  0  0  0
    1.9455    1.5845    1.0494 C   0  0  0  0  0  0  0  0  0  0  0  0
    3.2680    1.1345    0.9982 C   0  0  0  0  0  0  0  0  0  0  0  0
    6.5068    1.0464    2.2222 C   0  0  0  0  0  0  0  0  0  0  0  0
    7.6255    2.0274    1.8424 C   0  0  0  0  0  0  0  0  0  0  0  0
    6.8838    0.2688    3.4932 C   0  0  0  0  0  0  0  0  0  0  0  0
   10.7325   -1.0091   -2.4363 H   0  0  0  0  0  0  0  0  0  0  0  0
    9.1262   -0.3424   -2.9303 H   0  0  0  0  0  0  0  0  0  0  0  0
   10.1852    0.5910   -1.7967 H   0  0  0  0  0  0  0  0  0  0  0  0
    8.8784   -2.1434   -1.2171 H   0  0  0  0  0  0  0  0  0  0  0  0
    9.9399   -1.2090   -0.0835 H   0  0  0  0  0  0  0  0  0  0  0  0
    5.8964    0.7492    0.1485 H   0  0  0  0  0  0  0  0  0  0  0  0
    5.0808   -1.6878    1.6238 H   0  0  0  0  0  0  0  0  0  0  0  0
    2.7793   -2.0416    2.1350 H   0  0  0  0  0  0  0  0  0  0  0  0
    0.4612   -1.2497    2.2184 H   0  0  0  0  0  0  0  0  0  0  0  0
   -0.5364    2.2047    2.0373 H   0  0  0  0  0  0  0  0  0  0  0  0
   -1.1593    0.5294    2.0886 H   0  0  0  0  0  0  0  0  0  0  0  0
   -1.1575    2.3411   -0.2096 H   0  0  0  0  0  0  0  0  0  0  0  0
   -1.7895    1.5417   -2.3464 H   0  0  0  0  0  0  0  0  0  0  0  0
   -1.9350   -1.9742   -4.6567 H   0  0  0  0  0  0  0  0  0  0  0  0
   -2.2983   -0.2424   -5.0361 H   0  0  0  0  0  0  0  0  0  0  0  0
   -3.4785   -2.0328   -2.8784 H   0  0  0  0  0  0  0  0  0  0  0  0
   -4.2549   -0.7596   -3.9166 H   0  0  0  0  0  0  0  0  0  0  0  0
   -6.3828    0.4942   -1.4163 H   0  0  0  0  0  0  0  0  0  0  0  0
   -5.7319   -0.9778   -2.1736 H   0  0  0  0  0  0  0  0  0  0  0  0
   -5.5339   -0.2931    0.8413 H   0  0  0  0  0  0  0  0  0  0  0  0
   -4.7286   -2.6794   -0.7360 H   0  0  0  0  0  0  0  0  0  0  0  0
   -3.7496   -1.6529    0.1828 H   0  0  0  0  0  0  0  0  0  0  0  0
   -7.3335   -2.2979   -0.6743 H   0  0  0  0  0  0  0  0  0  0  0  0
   -7.1038   -2.2854    1.0916 H   0  0  0  0  0  0  0  0  0  0  0  0
   -8.8873   -0.7485   -1.6877 H   0  0  0  0  0  0  0  0  0  0  0  0
   -9.4620    1.5757    2.6587 H   0  0  0  0  0  0  0  0  0  0  0  0
    1.7168    2.5964    0.7377 H   0  0  0  0  0  0  0  0  0  0  0  0
    4.0225    1.8232    0.6485 H   0  0  0  0  0  0  0  0  0  0  0  0
    5.6154    1.6610    2.4729 H   0  0  0  0  0  0  0  0  0  0  0  0
    7.3391    2.6049    0.9377 H   0  0  0  0  0  0  0  0  0  0  0  0
    8.5755    1.4883    1.6396 H   0  0  0  0  0  0  0  0  0  0  0  0
    7.7983    2.7477    2.6704 H   0  0  0  0  0  0  0  0  0  0  0  0
    6.0790   -0.4454    3.7672 H   0  0  0  0  0  0  0  0  0  0  0  0
    7.0164    0.9738    4.3414 H   0  0  0  0  0  0  0  0  0  0  0  0
    7.8335   -0.2891    3.3545 H   0  0  0  0  0  0  0  0  0  0  0  0
  1  2  1  0
  2  3  1  0
  3  4  1  0
  4  5  2  0
  4  6  1  0
  6  7  1  0
  7  8  1  0
  8  9  2  0
  9 10  1  0
 10 11  2  0
 11 12  1  0
 12 13  1  0
 13 14  1  0
 14 15  2  0
 14 16  1  0
 16 17  1  0
 17 18  1  0
 18 19  1  0
 19 20  1  0
 20 21  1  0
 21 22  2  0
 21 23  1  0
 23 24  1  0
 24 25  1  0
 24 26  1  0
 26 27  1  0
 27 28  2  0
 28 29  1  0
 29 30  1  0
 29 31  2  0
 31 32  1  0
 31 33  1  0
 33 34  2  0
 34 35  1  0
 11 36  1  0
 36 37  2  0
  6 38  1  0
 38 39  1  0
 38 40  1  0
 37  8  1  0
 20 16  1  0
 34 27  1  0
  1 41  1  0
  1 42  1  0
  1 43  1  0
  2 44  1  0
  2 45  1  0
  6 46  1  6
  7 47  1  0
  9 48  1  0
 10 49  1  0
 12 50  1  0
 12 51  1  0
 13 52  1  0
 16 53  1  6
 18 54  1  0
 18 55  1  0
 19 56  1  0
 19 57  1  0
 23 58  1  0
 23 59  1  0
 24 60  1  1
 25 61  1  0
 25 62  1  0
 26 63  1  0
 26 64  1  0
 28 65  1  0
 33 66  1  0
 36 67  1  0
 37 68  1  0
 38 69  1  0
 39 70  1  0
 39 71  1  0
 39 72  1  0
 40 73  1  0
 40 74  1  0
 40 75  1  0
M  END
$$$$
