
     RDKit          3D

 57 61  0  0  0  0  0  0  0  0999 V2000
    4.9562   -0.6443    1.8816 N   0  0  0  0  0  0  0  0  0  0  0  0
    4.0554   -0.4523    0.7407 C   0  0  1  0  0  0  0  0  0  0  0  0
    2.6772    0.0081    1.2439 C   0  0  0  0  0  0  0  0  0  0  0  0
    1.7511    0.3978    0.0710 C   0  0  1  0  0  0  0  0  0  0  0  0
    0.4899    0.9976    0.5780 N   0  0  0  0  0  0  0  0  0  0  0  0
   -0.4458    1.4020   -0.5070 C   0  0  0  0  0  0  0  0  0  0  0  0
   -1.7840    1.0921    0.0264 C   0  0  0  0  0  0  0  0  0  0  0  0
   -2.9507    0.7101   -0.5953 C   0  0  0  0  0  0  0  0  0  0  0  0
   -3.5221   -0.2256    0.1915 N   0  0  0  0  0  0  0  0  0  0  0  0
   -4.9535   -1.1159   -0.1939 S   0  0  0  0  0  0  0  0  0  0  0  0
   -4.7039   -1.9450   -1.4222 O   0  0  0  0  0  0  0  0  0  0  0  0
   -5.2954   -2.0264    0.9525 O   0  0  0  0  0  0  0  0  0  0  0  0
   -6.3081    0.0274   -0.4927 C   0  0  0  0  0  0  0  0  0  0  0  0
   -7.6161   -0.7129   -0.7474 C   0  0  0  0  0  0  0  0  0  0  0  0
   -8.3110   -0.8344    0.6043 C   0  0  0  0  0  0  0  0  0  0  0  0
   -7.6410    0.1672    1.5431 C   0  0  0  0  0  0  0  0  0  0  0  0
   -6.5806    0.8973    0.7286 C   0  0  0  0  0  0  0  0  0  0  0  0
   -2.7297   -0.5128    1.2160 N   0  0  0  0  0  0  0  0  0  0  0  0
   -1.6910    0.3384    1.1291 C   0  0  0  0  0  0  0  0  0  0  0  0
   -0.2789    0.0819    1.4657 C   0  0  0  0  0  0  0  0  0  0  0  0
    2.5168    1.4037   -0.8196 C   0  0  0  0  0  0  0  0  0  0  0  0
    3.7217    0.8409   -1.3006 O   0  0  0  0  0  0  0  0  0  0  0  0
    4.6260    0.6080   -0.2345 C   0  0  2  0  0  0  0  0  0  0  0  0
    5.9510    0.1564   -0.8164 C   0  0  0  0  0  0  0  0  0  0  0  0
    7.1500    0.7426   -0.3692 C   0  0  0  0  0  0  0  0  0  0  0  0
    8.3804    0.3195   -0.8809 C   0  0  0  0  0  0  0  0  0  0  0  0
    9.5288    0.8924   -0.4436 F   0  0  0  0  0  0  0  0  0  0  0  0
    8.4284   -0.6949   -1.8395 C   0  0  0  0  0  0  0  0  0  0  0  0
    7.2470   -1.2901   -2.2867 C   0  0  0  0  0  0  0  0  0  0  0  0
    6.0121   -0.8729   -1.7796 C   0  0  0  0  0  0  0  0  0  0  0  0
    4.8805   -1.4732   -2.2284 F   0  0  0  0  0  0  0  0  0  0  0  0
    5.8275   -1.1131    1.5435 H   0  0  0  0  0  0  0  0  0  0  0  0
    4.5151   -1.3254    2.5420 H   0  0  0  0  0  0  0  0  0  0  0  0
    3.9257   -1.4213    0.2063 H   0  0  0  0  0  0  0  0  0  0  0  0
    2.8014    0.8829    1.9212 H   0  0  0  0  0  0  0  0  0  0  0  0
    2.2256   -0.8179    1.8334 H   0  0  0  0  0  0  0  0  0  0  0  0
    1.5268   -0.5138   -0.5301 H   0  0  0  0  0  0  0  0  0  0  0  0
   -0.3547    2.4893   -0.7112 H   0  0  0  0  0  0  0  0  0  0  0  0
   -0.2856    0.8123   -1.4380 H   0  0  0  0  0  0  0  0  0  0  0  0
   -3.2717    0.9600   -1.5981 H   0  0  0  0  0  0  0  0  0  0  0  0
   -6.0433    0.6603   -1.3678 H   0  0  0  0  0  0  0  0  0  0  0  0
   -7.4594   -1.7090   -1.2155 H   0  0  0  0  0  0  0  0  0  0  0  0
   -8.2499   -0.1040   -1.4297 H   0  0  0  0  0  0  0  0  0  0  0  0
   -9.3971   -0.6177    0.5046 H   0  0  0  0  0  0  0  0  0  0  0  0
   -8.1895   -1.8662    1.0014 H   0  0  0  0  0  0  0  0  0  0  0  0
   -8.3833    0.8862    1.9534 H   0  0  0  0  0  0  0  0  0  0  0  0
   -7.1608   -0.3708    2.3899 H   0  0  0  0  0  0  0  0  0  0  0  0
   -5.6667    1.0911    1.3309 H   0  0  0  0  0  0  0  0  0  0  0  0
   -6.9894    1.8758    0.3920 H   0  0  0  0  0  0  0  0  0  0  0  0
   -0.0856    0.3239    2.5316 H   0  0  0  0  0  0  0  0  0  0  0  0
   -0.0531   -0.9884    1.2583 H   0  0  0  0  0  0  0  0  0  0  0  0
    2.7059    2.3552   -0.2713 H   0  0  0  0  0  0  0  0  0  0  0  0
    1.9045    1.6662   -1.7059 H   0  0  0  0  0  0  0  0  0  0  0  0
    4.7935    1.5587    0.3266 H   0  0  0  0  0  0  0  0  0  0  0  0
    7.1334    1.5248    0.3795 H   0  0  0  0  0  0  0  0  0  0  0  0
    9.3813   -1.0227   -2.2347 H   0  0  0  0  0  0  0  0  0  0  0  0
    7.2889   -2.0785   -3.0272 H   0  0  0  0  0  0  0  0  0  0  0  0
  1  2  1  0
  2  3  1  0
  3  4  1  0
  4  5  1  0
  5  6  1  0
  6  7  1  0
  7  8  2  0
  8  9  1  0
  9 10  1  0
 10 11  2  0
 10 12  2  0
 10 13  1  0
 13 14  1  0
 14 15  1  0
 15 16  1  0
 16 17  1  0
  9 18  1  0
 18 19  2  0
 19 20  1  0
  4 21  1  0
 21 22  1  0
 22 23  1  0
 23 24  1  0
 24 25  2  0
 25 26  1  0
 26 27  1  0
 26 28  2  0
 28 29  1  0
 29 30  2  0
 30 31  1  0
 23  2  1  0
 30 24  1  0
 20  5  1  0
 19  7  1  0
 17 13  1  0
  1 32  1  0
  1 33  1  0
  2 34  1  6
  3 35  1  0
  3 36  1  0
  4 37  1  6
  6 38  1  0
  6 39  1  0
  8 40  1  0
 13 41  1  0
 14 42  1  0
 14 43  1  0
 15 44  1  0
 15 45  1  0
 16 46  1  0
 16 47  1  0
 17 48  1  0
 17 49  1  0
 20 50  1  0
 20 51  1  0
 21 52  1  0
 21 53  1  0
 23 54  1  1
 25 55  1  0
 28 56  1  0
 29 57  1  0
M  END
$$$$
