
     RDKit          3D

 51 55  0  0  0  0  0  0  0  0999 V2000
   -2.6617   -2.2012   -0.4746 N   0  0  0  0  0  0  0  0  0  0  0  0
   -2.5801   -0.9146    0.2232 C   0  0  1  0  0  0  0  0  0  0  0  0
   -1.1145   -0.4694    0.3834 C   0  0  0  0  0  0  0  0  0  0  0  0
   -1.0641    0.9613    0.9711 C   0  0  1  0  0  0  0  0  0  0  0  0
    0.3054    1.5248    1.1065 N   0  0  0  0  0  0  0  0  0  0  0  0
    1.1052    1.5657   -0.1507 C   0  0  0  0  0  0  0  0  0  0  0  0
    2.2176    0.6269    0.0845 C   0  0  0  0  0  0  0  0  0  0  0  0
    3.5294    0.6346   -0.3298 C   0  0  0  0  0  0  0  0  0  0  0  0
    4.2672    0.1826    0.7065 N   0  0  0  0  0  0  0  0  0  0  0  0
    5.9942    0.1161    0.7477 S   0  0  0  0  0  0  0  0  0  0  0  0
    6.4346   -0.5215    2.0351 O   0  0  0  0  0  0  0  0  0  0  0  0
    6.5471    1.5128    0.6779 O   0  0  0  0  0  0  0  0  0  0  0  0
    6.5724   -0.8948   -0.6135 C   0  0  0  0  0  0  0  0  0  0  0  0
    7.9801   -0.5803   -1.0907 C   0  0  0  0  0  0  0  0  0  0  0  0
    6.7804   -0.1465   -1.9194 C   0  0  0  0  0  0  0  0  0  0  0  0
    3.4976   -0.0136    1.7695 N   0  0  0  0  0  0  0  0  0  0  0  0
    2.2369    0.2147    1.3586 C   0  0  0  0  0  0  0  0  0  0  0  0
    1.1223    0.8057    2.1232 C   0  0  0  0  0  0  0  0  0  0  0  0
   -1.9703    1.8964    0.1488 C   0  0  0  0  0  0  0  0  0  0  0  0
   -3.3026    1.4178    0.1386 O   0  0  0  0  0  0  0  0  0  0  0  0
   -3.3805    0.1720   -0.5390 C   0  0  2  0  0  0  0  0  0  0  0  0
   -4.8371   -0.2316   -0.6512 C   0  0  0  0  0  0  0  0  0  0  0  0
   -5.6851   -0.1317    0.4684 C   0  0  0  0  0  0  0  0  0  0  0  0
   -7.0230   -0.5277    0.3826 C   0  0  0  0  0  0  0  0  0  0  0  0
   -7.8315   -0.4224    1.4659 F   0  0  0  0  0  0  0  0  0  0  0  0
   -7.5267   -1.0359   -0.8167 C   0  0  0  0  0  0  0  0  0  0  0  0
   -6.6927   -1.1534   -1.9307 C   0  0  0  0  0  0  0  0  0  0  0  0
   -5.3528   -0.7594   -1.8530 C   0  0  0  0  0  0  0  0  0  0  0  0
   -4.5625   -0.9002   -2.9475 F   0  0  0  0  0  0  0  0  0  0  0  0
   -2.1861   -2.1254   -1.4035 H   0  0  0  0  0  0  0  0  0  0  0  0
   -2.1458   -2.9191    0.0845 H   0  0  0  0  0  0  0  0  0  0  0  0
   -3.0199   -1.0362    1.2392 H   0  0  0  0  0  0  0  0  0  0  0  0
   -0.6179   -0.5141   -0.6070 H   0  0  0  0  0  0  0  0  0  0  0  0
   -0.5916   -1.1818    1.0554 H   0  0  0  0  0  0  0  0  0  0  0  0
   -1.5163    0.9187    1.9890 H   0  0  0  0  0  0  0  0  0  0  0  0
    0.5444    1.2881   -1.0647 H   0  0  0  0  0  0  0  0  0  0  0  0
    1.5088    2.5920   -0.2841 H   0  0  0  0  0  0  0  0  0  0  0  0
    3.9292    1.0801   -1.2313 H   0  0  0  0  0  0  0  0  0  0  0  0
    6.2499   -1.9531   -0.7071 H   0  0  0  0  0  0  0  0  0  0  0  0
    8.5008    0.2550   -0.5767 H   0  0  0  0  0  0  0  0  0  0  0  0
    8.5268   -1.4495   -1.5134 H   0  0  0  0  0  0  0  0  0  0  0  0
    6.6182   -0.7597   -2.8308 H   0  0  0  0  0  0  0  0  0  0  0  0
    6.5881    0.9470   -1.8988 H   0  0  0  0  0  0  0  0  0  0  0  0
    1.5205    1.5425    2.8527 H   0  0  0  0  0  0  0  0  0  0  0  0
    0.5653    0.0176    2.6745 H   0  0  0  0  0  0  0  0  0  0  0  0
   -1.9680    2.8996    0.6253 H   0  0  0  0  0  0  0  0  0  0  0  0
   -1.5971    2.0352   -0.8896 H   0  0  0  0  0  0  0  0  0  0  0  0
   -2.9591    0.2833   -1.5656 H   0  0  0  0  0  0  0  0  0  0  0  0
   -5.3080    0.2511    1.4087 H   0  0  0  0  0  0  0  0  0  0  0  0
   -8.5623   -1.3438   -0.8827 H   0  0  0  0  0  0  0  0  0  0  0  0
   -7.0853   -1.5550   -2.8561 H   0  0  0  0  0  0  0  0  0  0  0  0
  1  2  1  0
  2  3  1  0
  3  4  1  0
  4  5  1  0
  5  6  1  0
  6  7  1  0
  7  8  2  0
  8  9  1  0
  9 10  1  0
 10 11  2  0
 10 12  2  0
 10 13  1  0
 13 14  1  0
 14 15  1  0
  9 16  1  0
 16 17  2  0
 17 18  1  0
  4 19  1  0
 19 20  1  0
 20 21  1  0
 21 22  1  0
 22 23  2  0
 23 24  1  0
 24 25  1  0
 24 26  2  0
 26 27  1  0
 27 28  2  0
 28 29  1  0
 21  2  1  0
 28 22  1  0
 18  5  1  0
 17  7  1  0
 15 13  1  0
  1 30  1  0
  1 31  1  0
  2 32  1  1
  3 33  1  0
  3 34  1  0
  4 35  1  1
  6 36  1  0
  6 37  1  0
  8 38  1  0
 13 39  1  0
 14 40  1  0
 14 41  1  0
 15 42  1  0
 15 43  1  0
 18 44  1  0
 18 45  1  0
 19 46  1  0
 19 47  1  0
 21 48  1  6
 23 49  1  0
 26 50  1  0
 27 51  1  0
M  END
$$$$
