
     RDKit          3D

 58 60  0  0  0  0  0  0  0  0999 V2000
   -3.8589    3.4190    2.5742 C   0  0  0  0  0  0  0  0  0  0  0  0
   -4.5958    2.3078    1.3927 S   0  0  0  0  0  0  0  0  0  0  0  0
   -5.6515    1.4936    2.0856 O   0  0  0  0  0  0  0  0  0  0  0  0
   -5.2372    3.1022    0.2895 O   0  0  0  0  0  0  0  0  0  0  0  0
   -3.4022    1.2337    0.7290 N   0  0  0  0  0  0  0  0  0  0  0  0
   -2.3428    2.0030    0.0676 C   0  0  0  0  0  0  0  0  0  0  0  0
   -1.4251    1.0847   -0.7655 C   0  0  2  0  0  0  0  0  0  0  0  0
   -2.1677    0.4286   -1.9379 C   0  0  0  0  0  0  0  0  0  0  0  0
   -1.6916   -1.0291   -1.9678 C   0  0  2  0  0  0  0  0  0  0  0  0
   -2.7920   -2.0129   -2.4342 C   0  0  0  0  0  0  0  0  0  0  0  0
   -2.5063   -3.4246   -1.9142 C   0  0  0  0  0  0  0  0  0  0  0  0
   -2.4922   -3.4759   -0.3712 C   0  0  0  0  0  0  0  0  0  0  0  0
   -2.1592   -2.1229    0.2889 C   0  0  0  0  0  0  0  0  0  0  0  0
   -1.1507   -1.3203   -0.5544 C   0  0  2  0  0  0  0  0  0  0  0  0
   -0.8876   -0.0131    0.0365 N   0  0  0  0  0  0  0  0  0  0  0  0
    0.0452    0.1516    1.1243 C   0  0  0  0  0  0  0  0  0  0  0  0
    0.1183   -0.7364    2.0158 O   0  0  0  0  0  0  0  0  0  0  0  0
    1.0017    1.3175    1.1936 C   0  0  0  0  0  0  0  0  0  0  0  0
    2.3646    1.0344    0.5151 C   0  0  2  0  0  0  0  0  0  0  0  0
    2.2282    0.8649   -0.9348 N   0  0  0  0  0  0  0  0  0  0  0  0
    3.0876   -0.1793    1.1342 C   0  0  0  0  0  0  0  0  0  0  0  0
    4.5046   -0.2911    0.6276 C   0  0  0  0  0  0  0  0  0  0  0  0
    5.5241    0.4634    1.2329 C   0  0  0  0  0  0  0  0  0  0  0  0
    6.8363    0.3909    0.7552 C   0  0  0  0  0  0  0  0  0  0  0  0
    7.8128    1.1206    1.3492 F   0  0  0  0  0  0  0  0  0  0  0  0
    7.1398   -0.4298   -0.3351 C   0  0  0  0  0  0  0  0  0  0  0  0
    8.4116   -0.5001   -0.8003 F   0  0  0  0  0  0  0  0  0  0  0  0
    6.1307   -1.1758   -0.9502 C   0  0  0  0  0  0  0  0  0  0  0  0
    4.8162   -1.1072   -0.4769 C   0  0  0  0  0  0  0  0  0  0  0  0
    3.8514   -1.8337   -1.0964 F   0  0  0  0  0  0  0  0  0  0  0  0
   -3.2678    2.8378    3.3116 H   0  0  0  0  0  0  0  0  0  0  0  0
   -3.1948    4.1375    2.0515 H   0  0  0  0  0  0  0  0  0  0  0  0
   -4.6568    3.9804    3.1025 H   0  0  0  0  0  0  0  0  0  0  0  0
   -2.9793    0.7237    1.5385 H   0  0  0  0  0  0  0  0  0  0  0  0
   -2.7831    2.7617   -0.6164 H   0  0  0  0  0  0  0  0  0  0  0  0
   -1.7387    2.5435    0.8271 H   0  0  0  0  0  0  0  0  0  0  0  0
   -0.5897    1.6866   -1.1809 H   0  0  0  0  0  0  0  0  0  0  0  0
   -3.2682    0.4827   -1.7884 H   0  0  0  0  0  0  0  0  0  0  0  0
   -1.9278    0.9398   -2.8960 H   0  0  0  0  0  0  0  0  0  0  0  0
   -0.8355   -1.0986   -2.6774 H   0  0  0  0  0  0  0  0  0  0  0  0
   -2.8311   -2.0249   -3.5449 H   0  0  0  0  0  0  0  0  0  0  0  0
   -3.7943   -1.7030   -2.0647 H   0  0  0  0  0  0  0  0  0  0  0  0
   -3.2748   -4.1271   -2.3031 H   0  0  0  0  0  0  0  0  0  0  0  0
   -1.5195   -3.7583   -2.3049 H   0  0  0  0  0  0  0  0  0  0  0  0
   -1.7478   -4.2354   -0.0467 H   0  0  0  0  0  0  0  0  0  0  0  0
   -3.4866   -3.8119   -0.0044 H   0  0  0  0  0  0  0  0  0  0  0  0
   -3.0958   -1.5347    0.4019 H   0  0  0  0  0  0  0  0  0  0  0  0
   -1.7564   -2.3083    1.3062 H   0  0  0  0  0  0  0  0  0  0  0  0
   -0.1993   -1.8945   -0.6334 H   0  0  0  0  0  0  0  0  0  0  0  0
    1.1803    1.5637    2.2631 H   0  0  0  0  0  0  0  0  0  0  0  0
    0.5562    2.2274    0.7467 H   0  0  0  0  0  0  0  0  0  0  0  0
    2.9997    1.9314    0.6945 H   0  0  0  0  0  0  0  0  0  0  0  0
    1.8129    1.7340   -1.3413 H   0  0  0  0  0  0  0  0  0  0  0  0
    1.5827    0.0695   -1.1420 H   0  0  0  0  0  0  0  0  0  0  0  0
    2.5301   -1.1144    0.9106 H   0  0  0  0  0  0  0  0  0  0  0  0
    3.1059   -0.0746    2.2414 H   0  0  0  0  0  0  0  0  0  0  0  0
    5.3001    1.1089    2.0734 H   0  0  0  0  0  0  0  0  0  0  0  0
    6.3669   -1.8066   -1.7977 H   0  0  0  0  0  0  0  0  0  0  0  0
  1  2  1  0
  2  3  2  0
  2  4  2  0
  2  5  1  0
  5  6  1  0
  6  7  1  0
  7  8  1  0
  8  9  1  0
  9 10  1  0
 10 11  1  0
 11 12  1  0
 12 13  1  0
 13 14  1  0
 14 15  1  0
 15 16  1  0
 16 17  2  0
 16 18  1  0
 18 19  1  0
 19 20  1  0
 19 21  1  0
 21 22  1  0
 22 23  2  0
 23 24  1  0
 24 25  1  0
 24 26  2  0
 26 27  1  0
 26 28  1  0
 28 29  2  0
 29 30  1  0
 15  7  1  0
 29 22  1  0
 14  9  1  0
  1 31  1  0
  1 32  1  0
  1 33  1  0
  5 34  1  0
  6 35  1  0
  6 36  1  0
  7 37  1  6
  8 38  1  0
  8 39  1  0
  9 40  1  6
 10 41  1  0
 10 42  1  0
 11 43  1  0
 11 44  1  0
 12 45  1  0
 12 46  1  0
 13 47  1  0
 13 48  1  0
 14 49  1  6
 18 50  1  0
 18 51  1  0
 19 52  1  6
 20 53  1  0
 20 54  1  0
 21 55  1  0
 21 56  1  0
 23 57  1  0
 28 58  1  0
M  END
$$$$
