
     RDKit          3D

 34 34  0  0  0  0  0  0  0  0999 V2000
   -4.0112    0.5977    1.2588 C   0  0  0  0  0  0  0  0  0  0  0  0
   -2.8950   -0.0130    0.3857 C   0  0  0  0  0  0  0  0  0  0  0  0
   -3.2782    0.2076   -1.0943 C   0  0  0  0  0  0  0  0  0  0  0  0
   -2.8098   -1.5265    0.6890 C   0  0  0  0  0  0  0  0  0  0  0  0
   -1.6271    0.6890    0.7100 N   0  0  0  0  0  0  0  0  0  0  0  0
   -0.4226    0.1472    0.0560 C   0  0  0  0  0  0  0  0  0  0  0  0
    0.7478    1.0784    0.2400 C   0  0  0  0  0  0  0  0  0  0  0  0
    0.5481    2.2526    0.6568 O   0  0  0  0  0  0  0  0  0  0  0  0
    2.0854    0.6698   -0.1064 N   0  0  0  0  0  0  0  0  0  0  0  0
    3.2080    1.5944   -0.0952 C   0  0  0  0  0  0  0  0  0  0  0  0
    4.4170    0.7835   -0.5435 C   0  0  0  0  0  0  0  0  0  0  0  0
    3.8492   -0.4635   -1.2154 C   0  0  0  0  0  0  0  0  0  0  0  0
    2.4453   -0.6388   -0.6366 C   0  0  1  0  0  0  0  0  0  0  0  0
    2.4460   -1.6366    0.4461 C   0  0  0  0  0  0  0  0  0  0  0  0
    2.4456   -2.4204    1.2974 N   0  0  0  0  0  0  0  0  0  0  0  0
   -4.0900    1.6912    1.0753 H   0  0  0  0  0  0  0  0  0  0  0  0
   -4.9956    0.1320    1.0351 H   0  0  0  0  0  0  0  0  0  0  0  0
   -3.7943    0.4421    2.3377 H   0  0  0  0  0  0  0  0  0  0  0  0
   -4.3194   -0.1317   -1.2855 H   0  0  0  0  0  0  0  0  0  0  0  0
   -2.6235   -0.3684   -1.7798 H   0  0  0  0  0  0  0  0  0  0  0  0
   -3.2067    1.2856   -1.3546 H   0  0  0  0  0  0  0  0  0  0  0  0
   -2.1149   -2.0387   -0.0095 H   0  0  0  0  0  0  0  0  0  0  0  0
   -3.8067   -2.0045    0.5741 H   0  0  0  0  0  0  0  0  0  0  0  0
   -2.4572   -1.6949    1.7291 H   0  0  0  0  0  0  0  0  0  0  0  0
   -1.4667    0.6380    1.7450 H   0  0  0  0  0  0  0  0  0  0  0  0
   -0.5777    0.0303   -1.0341 H   0  0  0  0  0  0  0  0  0  0  0  0
   -0.1676   -0.8393    0.4959 H   0  0  0  0  0  0  0  0  0  0  0  0
    3.0146    2.4253   -0.8081 H   0  0  0  0  0  0  0  0  0  0  0  0
    3.3648    2.0012    0.9273 H   0  0  0  0  0  0  0  0  0  0  0  0
    5.0157    0.4840    0.3448 H   0  0  0  0  0  0  0  0  0  0  0  0
    5.0603    1.3629   -1.2408 H   0  0  0  0  0  0  0  0  0  0  0  0
    3.7712   -0.2797   -2.3098 H   0  0  0  0  0  0  0  0  0  0  0  0
    4.5063   -1.3473   -1.0542 H   0  0  0  0  0  0  0  0  0  0  0  0
    1.7386   -0.9498   -1.4361 H   0  0  0  0  0  0  0  0  0  0  0  0
  1  2  1  0
  2  3  1  0
  2  4  1  0
  2  5  1  0
  5  6  1  0
  6  7  1  0
  7  8  2  0
  7  9  1  0
  9 10  1  0
 10 11  1  0
 11 12  1  0
 12 13  1  0
 13 14  1  0
 14 15  3  0
 13  9  1  0
  1 16  1  0
  1 17  1  0
  1 18  1  0
  3 19  1  0
  3 20  1  0
  3 21  1  0
  4 22  1  0
  4 23  1  0
  4 24  1  0
  5 25  1  0
  6 26  1  0
  6 27  1  0
 10 28  1  0
 10 29  1  0
 11 30  1  0
 11 31  1  0
 12 32  1  0
 12 33  1  0
 13 34  1  6
M  END
$$$$
