
     RDKit          3D

 67 67  0  0  0  0  0  0  0  0999 V2000
   -2.2653   -5.9624    2.4522 C   0  0  0  0  0  0  0  0  0  0  0  0
   -2.1453   -4.5737    1.8987 C   0  0  0  0  0  0  0  0  0  0  0  0
   -1.5907   -3.5471    2.6789 C   0  0  0  0  0  0  0  0  0  0  0  0
   -1.4448   -2.2611    2.1508 C   0  0  0  0  0  0  0  0  0  0  0  0
   -1.8422   -1.9915    0.8336 C   0  0  0  0  0  0  0  0  0  0  0  0
   -1.6815   -0.6305    0.2722 C   0  0  0  0  0  0  0  0  0  0  0  0
   -2.7752    0.2766    0.2747 C   0  0  0  0  0  0  0  0  0  0  0  0
   -4.1059   -0.1388    0.8814 C   0  0  0  0  0  0  0  0  0  0  0  0
   -4.8769   -0.9177   -0.0824 N   0  0  0  0  0  0  0  0  0  0  0  0
   -2.6056    1.5542   -0.3240 C   0  0  0  0  0  0  0  0  0  0  0  0
   -3.7357    2.5713   -0.3714 C   0  0  0  0  0  0  0  0  0  0  0  0
   -3.5860    3.7458   -1.3729 C   0  0  0  0  0  0  0  0  0  0  0  0
   -3.4035    3.2717   -2.8219 C   0  0  0  0  0  0  0  0  0  0  0  0
   -2.5032    4.7574   -0.9670 C   0  0  0  0  0  0  0  0  0  0  0  0
   -1.3837    1.9028   -0.8030 N   0  0  0  0  0  0  0  0  0  0  0  0
   -0.3155    1.0714   -0.7930 C   0  0  0  0  0  0  0  0  0  0  0  0
    0.9012    1.5100   -1.3222 C   0  0  0  0  0  0  0  0  0  0  0  0
    2.0098    0.6627   -1.3362 C   0  0  0  0  0  0  0  0  0  0  0  0
    1.9124   -0.6411   -0.8163 C   0  0  0  0  0  0  0  0  0  0  0  0
    2.9938   -1.5381   -0.8069 O   0  0  0  0  0  0  0  0  0  0  0  0
    4.3325   -1.2293   -1.1955 C   0  0  0  0  0  0  0  0  0  0  0  0
    5.0317   -0.4038   -0.1109 C   0  0  0  0  0  0  0  0  0  0  0  0
    6.4697   -0.0578   -0.5229 C   0  0  0  0  0  0  0  0  0  0  0  0
    7.2119    0.7266    0.5666 C   0  0  0  0  0  0  0  0  0  0  0  0
    6.6524    2.1061    0.7343 C   0  0  0  0  0  0  0  0  0  0  0  0
    5.9017    2.3699    1.7114 O   0  0  0  0  0  0  0  0  0  0  0  0
    6.9393    3.0890   -0.2076 O   0  0  0  0  0  0  0  0  0  0  0  0
    0.6909   -1.0784   -0.2897 C   0  0  0  0  0  0  0  0  0  0  0  0
   -0.4359   -0.2281   -0.2644 C   0  0  0  0  0  0  0  0  0  0  0  0
   -2.3756   -3.0202    0.0451 C   0  0  0  0  0  0  0  0  0  0  0  0
   -2.5222   -4.3060    0.5733 C   0  0  0  0  0  0  0  0  0  0  0  0
    0.6878    0.0000    0.0000 Cl  0  0  0  0  0  0  0  0  0  0  0  0
    0.6878    0.0000    0.0000 Cl  0  0  0  0  0  0  0  0  0  0  0  0
   -1.3320   -6.5253    2.2420 H   0  0  0  0  0  0  0  0  0  0  0  0
   -2.4318   -5.9335    3.5502 H   0  0  0  0  0  0  0  0  0  0  0  0
   -3.1226   -6.4960    1.9892 H   0  0  0  0  0  0  0  0  0  0  0  0
   -1.2718   -3.7421    3.6954 H   0  0  0  0  0  0  0  0  0  0  0  0
   -1.0207   -1.4761    2.7648 H   0  0  0  0  0  0  0  0  0  0  0  0
   -3.9355   -0.7502    1.7931 H   0  0  0  0  0  0  0  0  0  0  0  0
   -4.6979    0.7331    1.2308 H   0  0  0  0  0  0  0  0  0  0  0  0
   -5.7534   -1.2349    0.3913 H   0  0  0  0  0  0  0  0  0  0  0  0
   -5.1704   -0.2855   -0.8616 H   0  0  0  0  0  0  0  0  0  0  0  0
   -3.8762    2.9857    0.6502 H   0  0  0  0  0  0  0  0  0  0  0  0
   -4.6774    2.0499   -0.6433 H   0  0  0  0  0  0  0  0  0  0  0  0
   -4.5516    4.2992   -1.3416 H   0  0  0  0  0  0  0  0  0  0  0  0
   -2.4132    2.7966   -2.9752 H   0  0  0  0  0  0  0  0  0  0  0  0
   -3.4830    4.1370   -3.5139 H   0  0  0  0  0  0  0  0  0  0  0  0
   -4.1970    2.5417   -3.0890 H   0  0  0  0  0  0  0  0  0  0  0  0
   -2.6110    5.0311    0.1040 H   0  0  0  0  0  0  0  0  0  0  0  0
   -1.4811    4.3657   -1.1392 H   0  0  0  0  0  0  0  0  0  0  0  0
   -2.6145    5.6839   -1.5700 H   0  0  0  0  0  0  0  0  0  0  0  0
    0.9885    2.5101   -1.7293 H   0  0  0  0  0  0  0  0  0  0  0  0
    2.9327    1.0337   -1.7580 H   0  0  0  0  0  0  0  0  0  0  0  0
    4.3439   -0.7063   -2.1757 H   0  0  0  0  0  0  0  0  0  0  0  0
    4.8814   -2.1862   -1.3255 H   0  0  0  0  0  0  0  0  0  0  0  0
    5.0452   -0.9895    0.8342 H   0  0  0  0  0  0  0  0  0  0  0  0
    4.4616    0.5312    0.0696 H   0  0  0  0  0  0  0  0  0  0  0  0
    6.4621    0.5300   -1.4675 H   0  0  0  0  0  0  0  0  0  0  0  0
    7.0279   -1.0004   -0.7142 H   0  0  0  0  0  0  0  0  0  0  0  0
    7.1689    0.1744    1.5310 H   0  0  0  0  0  0  0  0  0  0  0  0
    8.2818    0.8143    0.2800 H   0  0  0  0  0  0  0  0  0  0  0  0
    6.5587    4.0233   -0.1157 H   0  0  0  0  0  0  0  0  0  0  0  0
    0.6381   -2.0868    0.1002 H   0  0  0  0  0  0  0  0  0  0  0  0
   -2.6735   -2.8258   -0.9780 H   0  0  0  0  0  0  0  0  0  0  0  0
   -2.9288   -5.0923   -0.0507 H   0  0  0  0  0  0  0  0  0  0  0  0
   -0.6878    0.0000    0.0000 H   0  0  0  0  0  0  0  0  0  0  0  0
   -0.6878    0.0000    0.0000 H   0  0  0  0  0  0  0  0  0  0  0  0
  1  2  1  0
  2  3  2  0
  3  4  1  0
  4  5  2  0
  5  6  1  0
  6  7  2  0
  7  8  1  0
  8  9  1  0
  7 10  1  0
 10 11  1  0
 11 12  1  0
 12 13  1  0
 12 14  1  0
 10 15  2  0
 15 16  1  0
 16 17  2  0
 17 18  1  0
 18 19  2  0
 19 20  1  0
 20 21  1  0
 21 22  1  0
 22 23  1  0
 23 24  1  0
 24 25  1  0
 25 26  2  0
 25 27  1  0
 19 28  1  0
 28 29  2  0
  5 30  1  0
 30 31  2  0
 31  2  1  0
 29  6  1  0
 29 16  1  0
  1 34  1  0
  1 35  1  0
  1 36  1  0
  3 37  1  0
  4 38  1  0
  8 39  1  0
  8 40  1  0
  9 41  1  0
  9 42  1  0
 11 43  1  0
 11 44  1  0
 12 45  1  0
 13 46  1  0
 13 47  1  0
 13 48  1  0
 14 49  1  0
 14 50  1  0
 14 51  1  0
 17 52  1  0
 18 53  1  0
 21 54  1  0
 21 55  1  0
 22 56  1  0
 22 57  1  0
 23 58  1  0
 23 59  1  0
 24 60  1  0
 24 61  1  0
 27 62  1  0
 28 63  1  0
 30 64  1  0
 31 65  1  0
 32 66  1  0
 33 67  1  0
M  END
$$$$
