
     RDKit          3D

 51 54  0  0  0  0  0  0  0  0999 V2000
    9.3217    0.1907    2.1570 N   0  0  0  0  0  0  0  0  0  0  0  0
    8.2473    0.0759    1.7426 C   0  0  0  0  0  0  0  0  0  0  0  0
    6.9109   -0.0669    1.2271 C   0  0  0  0  0  0  0  0  0  0  0  0
    6.1677    1.0666    0.8802 C   0  0  0  0  0  0  0  0  0  0  0  0
    4.8698    0.9292    0.3789 C   0  0  0  0  0  0  0  0  0  0  0  0
    4.2953   -0.3460    0.2197 C   0  0  0  0  0  0  0  0  0  0  0  0
    2.9547   -0.4878   -0.3008 N   0  0  0  0  0  0  0  0  0  0  0  0
    2.4696    0.4219   -1.3467 C   0  0  0  0  0  0  0  0  0  0  0  0
    1.2899   -0.1960   -2.1104 C   0  0  0  0  0  0  0  0  0  0  0  0
    0.1959   -0.6517   -1.2168 N   0  0  0  0  0  0  0  0  0  0  0  0
   -0.9772    0.2645   -1.2284 C   0  0  2  0  0  0  0  0  0  0  0  0
   -0.7257    1.6510   -0.6332 C   0  0  0  0  0  0  0  0  0  0  0  0
   -1.9831    2.1153   -0.0388 N   0  0  0  0  0  0  0  0  0  0  0  0
   -2.9618    1.0256   -0.1610 C   0  0  2  0  0  0  0  0  0  0  0  0
   -3.7627    0.8859    1.1133 C   0  0  0  0  0  0  0  0  0  0  0  0
   -3.2566    1.2862    2.1981 O   0  0  0  0  0  0  0  0  0  0  0  0
   -5.0513    0.2381    1.1320 N   0  0  0  0  0  0  0  0  0  0  0  0
   -5.7621   -0.1612   -0.0761 C   0  0  0  0  0  0  0  0  0  0  0  0
   -7.1595   -0.6071    0.3232 C   0  0  0  0  0  0  0  0  0  0  0  0
   -7.1002   -1.1989    2.0360 S   0  0  0  0  0  0  0  0  0  0  0  0
   -5.6998   -0.1013    2.3912 C   0  0  0  0  0  0  0  0  0  0  0  0
   -2.1887   -0.2507   -0.4722 C   0  0  0  0  0  0  0  0  0  0  0  0
    0.6252   -1.1488    0.1167 C   0  0  0  0  0  0  0  0  0  0  0  0
    2.0923   -1.5894    0.1417 C   0  0  0  0  0  0  0  0  0  0  0  0
    5.0537   -1.4796    0.5696 C   0  0  0  0  0  0  0  0  0  0  0  0
    6.3516   -1.3398    1.0700 C   0  0  0  0  0  0  0  0  0  0  0  0
    6.5903    2.0572    0.9991 H   0  0  0  0  0  0  0  0  0  0  0  0
    4.3113    1.8213    0.1288 H   0  0  0  0  0  0  0  0  0  0  0  0
    3.2855    0.6241   -2.0749 H   0  0  0  0  0  0  0  0  0  0  0  0
    2.1646    1.3858   -0.8902 H   0  0  0  0  0  0  0  0  0  0  0  0
    0.9293    0.5328   -2.8699 H   0  0  0  0  0  0  0  0  0  0  0  0
    1.6618   -1.0753   -2.6793 H   0  0  0  0  0  0  0  0  0  0  0  0
   -1.3069    0.4035   -2.2847 H   0  0  0  0  0  0  0  0  0  0  0  0
    0.0438    1.6331    0.1622 H   0  0  0  0  0  0  0  0  0  0  0  0
   -0.3767    2.3515   -1.4252 H   0  0  0  0  0  0  0  0  0  0  0  0
   -2.3297    2.9456   -0.5757 H   0  0  0  0  0  0  0  0  0  0  0  0
   -3.6402    1.2459   -1.0153 H   0  0  0  0  0  0  0  0  0  0  0  0
   -5.2205   -0.9995   -0.5639 H   0  0  0  0  0  0  0  0  0  0  0  0
   -5.8439    0.6932   -0.7813 H   0  0  0  0  0  0  0  0  0  0  0  0
   -7.8593    0.2546    0.2745 H   0  0  0  0  0  0  0  0  0  0  0  0
   -7.5256   -1.4115   -0.3492 H   0  0  0  0  0  0  0  0  0  0  0  0
   -6.0625    0.8226    2.8891 H   0  0  0  0  0  0  0  0  0  0  0  0
   -4.9899   -0.6356    3.0576 H   0  0  0  0  0  0  0  0  0  0  0  0
   -1.9058   -0.7565    0.4743 H   0  0  0  0  0  0  0  0  0  0  0  0
   -2.7855   -0.9511   -1.0958 H   0  0  0  0  0  0  0  0  0  0  0  0
    0.4807   -0.3829    0.9062 H   0  0  0  0  0  0  0  0  0  0  0  0
    0.0064   -2.0311    0.3856 H   0  0  0  0  0  0  0  0  0  0  0  0
    2.2374   -2.4662   -0.5259 H   0  0  0  0  0  0  0  0  0  0  0  0
    2.3490   -1.8878    1.1819 H   0  0  0  0  0  0  0  0  0  0  0  0
    4.6494   -2.4752    0.4412 H   0  0  0  0  0  0  0  0  0  0  0  0
    6.9198   -2.2246    1.3308 H   0  0  0  0  0  0  0  0  0  0  0  0
  1  2  3  0
  2  3  1  0
  3  4  2  0
  4  5  1  0
  5  6  2  0
  6  7  1  0
  7  8  1  0
  8  9  1  0
  9 10  1  0
 10 11  1  0
 11 12  1  0
 12 13  1  0
 13 14  1  0
 14 15  1  0
 15 16  2  0
 15 17  1  0
 17 18  1  0
 18 19  1  0
 19 20  1  0
 20 21  1  0
 14 22  1  0
 10 23  1  0
 23 24  1  0
  6 25  1  0
 25 26  2  0
 26  3  1  0
 24  7  1  0
 22 11  1  0
 21 17  1  0
  4 27  1  0
  5 28  1  0
  8 29  1  0
  8 30  1  0
  9 31  1  0
  9 32  1  0
 11 33  1  6
 12 34  1  0
 12 35  1  0
 13 36  1  0
 14 37  1  6
 18 38  1  0
 18 39  1  0
 19 40  1  0
 19 41  1  0
 21 42  1  0
 21 43  1  0
 22 44  1  0
 22 45  1  0
 23 46  1  0
 23 47  1  0
 24 48  1  0
 24 49  1  0
 25 50  1  0
 26 51  1  0
M  END
$$$$
