
     RDKit          3D

 63 67  0  0  0  0  0  0  0  0999 V2000
   -6.2661   -0.0802    2.2679 N   0  0  0  0  0  0  0  0  0  0  0  0
   -5.3653    0.5107    1.2738 C   0  0  1  0  0  0  0  0  0  0  0  0
   -3.8963    0.3578    1.6988 C   0  0  0  0  0  0  0  0  0  0  0  0
   -2.9354    0.8641    0.6004 C   0  0  1  0  0  0  0  0  0  0  0  0
   -1.8578   -0.1024    0.3804 N   0  0  0  0  0  0  0  0  0  0  0  0
   -2.0288   -1.2889   -0.1894 N   0  0  0  0  0  0  0  0  0  0  0  0
   -0.8256   -1.8902   -0.1795 C   0  0  0  0  0  0  0  0  0  0  0  0
    0.0561   -1.0183    0.4217 C   0  0  0  0  0  0  0  0  0  0  0  0
    1.4540   -1.2431    0.6548 N   0  0  0  0  0  0  0  0  0  0  0  0
    2.1769   -2.4341    0.2430 C   0  0  0  0  0  0  0  0  0  0  0  0
    3.6001   -2.2773    0.8086 C   0  0  0  0  0  0  0  0  0  0  0  0
    3.7594   -0.7887    1.2200 C   0  0  0  0  0  0  0  0  0  0  0  0
    4.2926   -0.6849    2.5170 O   0  0  0  0  0  0  0  0  0  0  0  0
    4.5670    0.0210    0.2244 C   0  0  0  0  0  0  0  0  0  0  0  0
    4.5670   -0.3017   -0.9959 O   0  0  0  0  0  0  0  0  0  0  0  0
    5.2637    1.2031    0.6482 N   0  0  0  0  0  0  0  0  0  0  0  0
    6.1388    1.9578   -0.2458 C   0  0  0  0  0  0  0  0  0  0  0  0
    7.3966    1.1776   -0.5237 C   0  0  0  0  0  0  0  0  0  0  0  0
    7.6015    0.5904   -1.7833 C   0  0  0  0  0  0  0  0  0  0  0  0
    8.7560   -0.1580   -2.0340 C   0  0  0  0  0  0  0  0  0  0  0  0
    9.0029   -0.8876   -3.6099 Cl  0  0  0  0  0  0  0  0  0  0  0  0
    9.7116   -0.3281   -1.0279 C   0  0  0  0  0  0  0  0  0  0  0  0
    9.5147    0.2474    0.2314 C   0  0  0  0  0  0  0  0  0  0  0  0
   10.7196    0.0198    1.4878 Cl  0  0  0  0  0  0  0  0  0  0  0  0
    8.3590    0.9977    0.4867 C   0  0  0  0  0  0  0  0  0  0  0  0
    8.1704    1.5464    1.7146 F   0  0  0  0  0  0  0  0  0  0  0  0
    2.3580   -0.3069    1.2147 C   0  0  0  0  0  0  0  0  0  0  0  0
    2.0038    0.8245    1.6439 O   0  0  0  0  0  0  0  0  0  0  0  0
   -0.6076    0.0970    0.7714 N   0  0  0  0  0  0  0  0  0  0  0  0
   -3.6717    1.1591   -0.7219 C   0  0  0  0  0  0  0  0  0  0  0  0
   -4.5536    0.1115   -1.0860 O   0  0  0  0  0  0  0  0  0  0  0  0
   -5.5666   -0.1597   -0.1150 C   0  0  2  0  0  0  0  0  0  0  0  0
   -6.9357    0.1659   -0.6815 C   0  0  0  0  0  0  0  0  0  0  0  0
   -7.1635    1.3868   -1.3446 C   0  0  0  0  0  0  0  0  0  0  0  0
   -8.4326    1.6999   -1.8406 C   0  0  0  0  0  0  0  0  0  0  0  0
   -8.6376    2.8767   -2.4822 F   0  0  0  0  0  0  0  0  0  0  0  0
   -9.4905    0.8045   -1.6727 C   0  0  0  0  0  0  0  0  0  0  0  0
   -9.2829   -0.4037   -1.0051 C   0  0  0  0  0  0  0  0  0  0  0  0
   -8.0162   -0.7245   -0.5060 C   0  0  0  0  0  0  0  0  0  0  0  0
   -7.8499   -1.9006    0.1510 F   0  0  0  0  0  0  0  0  0  0  0  0
   -6.1439    0.4289    3.1735 H   0  0  0  0  0  0  0  0  0  0  0  0
   -6.0007   -1.0786    2.4336 H   0  0  0  0  0  0  0  0  0  0  0  0
   -5.6012    1.5966    1.1971 H   0  0  0  0  0  0  0  0  0  0  0  0
   -3.6945   -0.7131    1.9244 H   0  0  0  0  0  0  0  0  0  0  0  0
   -3.7210    0.9277    2.6376 H   0  0  0  0  0  0  0  0  0  0  0  0
   -2.4862    1.8236    0.9434 H   0  0  0  0  0  0  0  0  0  0  0  0
   -0.6195   -2.8760   -0.5739 H   0  0  0  0  0  0  0  0  0  0  0  0
    2.2085   -2.4833   -0.8671 H   0  0  0  0  0  0  0  0  0  0  0  0
    1.6875   -3.3461    0.6486 H   0  0  0  0  0  0  0  0  0  0  0  0
    4.3645   -2.6071    0.0717 H   0  0  0  0  0  0  0  0  0  0  0  0
    3.6965   -2.9294    1.7052 H   0  0  0  0  0  0  0  0  0  0  0  0
    5.2069   -1.0727    2.4883 H   0  0  0  0  0  0  0  0  0  0  0  0
    5.1433    1.5476    1.6272 H   0  0  0  0  0  0  0  0  0  0  0  0
    5.5948    2.2035   -1.1839 H   0  0  0  0  0  0  0  0  0  0  0  0
    6.4103    2.9238    0.2326 H   0  0  0  0  0  0  0  0  0  0  0  0
    6.8648    0.7106   -2.5682 H   0  0  0  0  0  0  0  0  0  0  0  0
   10.6044   -0.9087   -1.2235 H   0  0  0  0  0  0  0  0  0  0  0  0
   -4.2190    2.1234   -0.6481 H   0  0  0  0  0  0  0  0  0  0  0  0
   -2.9250    1.2905   -1.5337 H   0  0  0  0  0  0  0  0  0  0  0  0
   -5.5124   -1.2575    0.0537 H   0  0  0  0  0  0  0  0  0  0  0  0
   -6.3634    2.0998   -1.4805 H   0  0  0  0  0  0  0  0  0  0  0  0
  -10.4732    1.0480   -2.0557 H   0  0  0  0  0  0  0  0  0  0  0  0
  -10.1073   -1.0922   -0.8706 H   0  0  0  0  0  0  0  0  0  0  0  0
  1  2  1  0
  2  3  1  0
  3  4  1  0
  4  5  1  0
  5  6  1  0
  6  7  2  0
  7  8  1  0
  8  9  1  0
  9 10  1  0
 10 11  1  0
 11 12  1  0
 12 13  1  0
 12 14  1  0
 14 15  2  0
 14 16  1  0
 16 17  1  0
 17 18  1  0
 18 19  2  0
 19 20  1  0
 20 21  1  0
 20 22  2  0
 22 23  1  0
 23 24  1  0
 23 25  2  0
 25 26  1  0
 12 27  1  0
 27 28  2  0
  8 29  2  0
  4 30  1  0
 30 31  1  0
 31 32  1  0
 32 33  1  0
 33 34  2  0
 34 35  1  0
 35 36  1  0
 35 37  2  0
 37 38  1  0
 38 39  2  0
 39 40  1  0
 32  2  1  0
 39 33  1  0
 29  5  1  0
 27  9  1  0
 25 18  1  0
  1 41  1  0
  1 42  1  0
  2 43  1  6
  3 44  1  0
  3 45  1  0
  4 46  1  1
  7 47  1  0
 10 48  1  0
 10 49  1  0
 11 50  1  0
 11 51  1  0
 13 52  1  0
 16 53  1  0
 17 54  1  0
 17 55  1  0
 19 56  1  0
 22 57  1  0
 30 58  1  0
 30 59  1  0
 32 60  1  1
 34 61  1  0
 37 62  1  0
 38 63  1  0
M  END
$$$$
