
     RDKit          3D

 60 62  0  0  0  0  0  0  0  0999 V2000
    4.5046   -2.8336   -0.7036 N   0  0  0  0  0  0  0  0  0  0  0  0
    4.6481   -1.3844   -0.6070 C   0  0  0  0  0  0  0  0  0  0  0  0
    4.5997   -0.7563   -2.0049 C   0  0  0  0  0  0  0  0  0  0  0  0
    4.8810    0.7572   -1.9928 C   0  0  0  0  0  0  0  0  0  0  0  0
    3.8440    1.6096   -1.2332 C   0  0  0  0  0  0  0  0  0  0  0  0
    2.3999    1.5157   -1.7810 C   0  0  2  0  0  0  0  0  0  0  0  0
    2.3193    1.9054   -3.1933 N   0  0  0  0  0  0  0  0  0  0  0  0
    1.4940    2.4032   -0.9576 C   0  0  0  0  0  0  0  0  0  0  0  0
    1.3559    3.6114   -1.2947 O   0  0  0  0  0  0  0  0  0  0  0  0
    0.8743    1.9422    0.2601 N   0  0  0  0  0  0  0  0  0  0  0  0
    0.4353    2.8684    1.2935 C   0  0  0  0  0  0  0  0  0  0  0  0
   -0.0734    2.0028    2.4393 C   0  0  0  0  0  0  0  0  0  0  0  0
    0.4915    0.6126    2.1723 C   0  0  0  0  0  0  0  0  0  0  0  0
    0.7168    0.5502    0.6647 C   0  0  0  0  0  0  0  0  0  0  0  0
   -0.7108   -0.1906   -0.2210 P   0  0  0  0  0  0  0  0  0  0  0  0
   -0.3401   -0.3233   -1.6801 O   0  0  0  0  0  0  0  0  0  0  0  0
   -1.0628   -1.7726    0.3771 O   0  0  0  0  0  0  0  0  0  0  0  0
   -1.9534   -2.1057    1.4114 C   0  0  0  0  0  0  0  0  0  0  0  0
   -2.6424   -1.1530    2.1901 C   0  0  0  0  0  0  0  0  0  0  0  0
   -3.5262   -1.5657    3.1921 C   0  0  0  0  0  0  0  0  0  0  0  0
   -3.7312   -2.9259    3.4308 C   0  0  0  0  0  0  0  0  0  0  0  0
   -3.0491   -3.8768    2.6697 C   0  0  0  0  0  0  0  0  0  0  0  0
   -2.1648   -3.4674    1.6674 C   0  0  0  0  0  0  0  0  0  0  0  0
   -2.0759    0.8552   -0.1125 O   0  0  0  0  0  0  0  0  0  0  0  0
   -3.3341    0.5919   -0.6733 C   0  0  0  0  0  0  0  0  0  0  0  0
   -3.6150   -0.5738   -1.4151 C   0  0  0  0  0  0  0  0  0  0  0  0
   -4.8953   -0.7839   -1.9372 C   0  0  0  0  0  0  0  0  0  0  0  0
   -5.9022    0.1614   -1.7282 C   0  0  0  0  0  0  0  0  0  0  0  0
   -5.6306    1.3196   -0.9963 C   0  0  0  0  0  0  0  0  0  0  0  0
   -4.3522    1.5328   -0.4722 C   0  0  0  0  0  0  0  0  0  0  0  0
    4.4512   -3.2136    0.2692 H   0  0  0  0  0  0  0  0  0  0  0  0
    5.3797   -3.2220   -1.1250 H   0  0  0  0  0  0  0  0  0  0  0  0
    3.8172   -0.9861    0.0112 H   0  0  0  0  0  0  0  0  0  0  0  0
    5.6117   -1.1345   -0.1087 H   0  0  0  0  0  0  0  0  0  0  0  0
    3.6217   -0.9705   -2.4838 H   0  0  0  0  0  0  0  0  0  0  0  0
    5.3785   -1.2382   -2.6355 H   0  0  0  0  0  0  0  0  0  0  0  0
    4.9553    1.1159   -3.0414 H   0  0  0  0  0  0  0  0  0  0  0  0
    5.8788    0.9299   -1.5337 H   0  0  0  0  0  0  0  0  0  0  0  0
    3.8515    1.3258   -0.1591 H   0  0  0  0  0  0  0  0  0  0  0  0
    4.1784    2.6698   -1.2773 H   0  0  0  0  0  0  0  0  0  0  0  0
    2.0495    0.4707   -1.6953 H   0  0  0  0  0  0  0  0  0  0  0  0
    2.7086    1.1361   -3.7847 H   0  0  0  0  0  0  0  0  0  0  0  0
    2.8975    2.7613   -3.3612 H   0  0  0  0  0  0  0  0  0  0  0  0
    1.2960    3.4858    1.6310 H   0  0  0  0  0  0  0  0  0  0  0  0
   -0.3740    3.5250    0.9067 H   0  0  0  0  0  0  0  0  0  0  0  0
   -1.1841    1.9661    2.4174 H   0  0  0  0  0  0  0  0  0  0  0  0
    0.2607    2.3932    3.4250 H   0  0  0  0  0  0  0  0  0  0  0  0
   -0.1599   -0.1918    2.5623 H   0  0  0  0  0  0  0  0  0  0  0  0
    1.4754    0.5265    2.6849 H   0  0  0  0  0  0  0  0  0  0  0  0
    1.6346   -0.0384    0.4631 H   0  0  0  0  0  0  0  0  0  0  0  0
   -2.4977   -0.0957    2.0534 H   0  0  0  0  0  0  0  0  0  0  0  0
   -4.0499   -0.8287    3.7873 H   0  0  0  0  0  0  0  0  0  0  0  0
   -4.4156   -3.2427    4.2071 H   0  0  0  0  0  0  0  0  0  0  0  0
   -3.2057   -4.9316    2.8552 H   0  0  0  0  0  0  0  0  0  0  0  0
   -1.6437   -4.2134    1.0806 H   0  0  0  0  0  0  0  0  0  0  0  0
   -2.8594   -1.3246   -1.5937 H   0  0  0  0  0  0  0  0  0  0  0  0
   -5.1069   -1.6812   -2.5043 H   0  0  0  0  0  0  0  0  0  0  0  0
   -6.8923   -0.0035   -2.1331 H   0  0  0  0  0  0  0  0  0  0  0  0
   -6.4108    2.0520   -0.8339 H   0  0  0  0  0  0  0  0  0  0  0  0
   -4.1514    2.4317    0.0970 H   0  0  0  0  0  0  0  0  0  0  0  0
  1  2  1  0
  2  3  1  0
  3  4  1  0
  4  5  1  0
  5  6  1  0
  6  7  1  0
  6  8  1  0
  8  9  2  0
  8 10  1  0
 10 11  1  0
 11 12  1  0
 12 13  1  0
 13 14  1  0
 14 15  1  0
 15 16  2  0
 15 17  1  0
 17 18  1  0
 18 19  2  0
 19 20  1  0
 20 21  2  0
 21 22  1  0
 22 23  2  0
 15 24  1  0
 24 25  1  0
 25 26  2  0
 26 27  1  0
 27 28  2  0
 28 29  1  0
 29 30  2  0
 14 10  1  0
 23 18  1  0
 30 25  1  0
  1 31  1  0
  1 32  1  0
  2 33  1  0
  2 34  1  0
  3 35  1  0
  3 36  1  0
  4 37  1  0
  4 38  1  0
  5 39  1  0
  5 40  1  0
  6 41  1  6
  7 42  1  0
  7 43  1  0
 11 44  1  0
 11 45  1  0
 12 46  1  0
 12 47  1  0
 13 48  1  0
 13 49  1  0
 14 50  1  0
 19 51  1  0
 20 52  1  0
 21 53  1  0
 22 54  1  0
 23 55  1  0
 26 56  1  0
 27 57  1  0
 28 58  1  0
 29 59  1  0
 30 60  1  0
M  END
$$$$
