
     RDKit          3D

 49 50  0  0  0  0  0  0  0  0999 V2000
   -4.3819    2.8084   -1.3207 C   0  0  0  0  0  0  0  0  0  0  0  0
   -3.6716    2.2512   -0.0905 C   0  0  0  0  0  0  0  0  0  0  0  0
   -3.9963    0.7638    0.1131 C   0  0  0  0  0  0  0  0  0  0  0  0
   -3.2555    0.1671    1.3327 C   0  0  0  0  0  0  0  0  0  0  0  0
   -2.0364   -0.7337    0.9988 C   0  0  2  0  0  0  0  0  0  0  0  0
   -0.9356    0.0527    0.2636 C   0  0  0  0  0  0  0  0  0  0  0  0
    0.2243   -0.8134    0.0254 N   0  0  0  0  0  0  0  0  0  0  0  0
    1.5575   -0.2926    0.1839 C   0  0  0  0  0  0  0  0  0  0  0  0
    1.9492    0.2740    1.4038 C   0  0  0  0  0  0  0  0  0  0  0  0
    3.2401    0.7784    1.5675 C   0  0  0  0  0  0  0  0  0  0  0  0
    4.1661    0.7237    0.5088 C   0  0  0  0  0  0  0  0  0  0  0  0
    5.4730    1.2206    0.6358 O   0  0  0  0  0  0  0  0  0  0  0  0
    5.9965    1.8207    1.8162 C   0  0  0  0  0  0  0  0  0  0  0  0
    3.7840    0.1567   -0.7171 C   0  0  0  0  0  0  0  0  0  0  0  0
    4.7283    0.1164   -1.7554 O   0  0  0  0  0  0  0  0  0  0  0  0
    4.4842   -0.4291   -3.0479 C   0  0  0  0  0  0  0  0  0  0  0  0
    2.4790   -0.3503   -0.8736 C   0  0  0  0  0  0  0  0  0  0  0  0
   -0.0017   -2.0855   -0.6695 C   0  0  0  0  0  0  0  0  0  0  0  0
   -1.1055   -2.8816    0.0329 C   0  0  0  0  0  0  0  0  0  0  0  0
   -2.3832   -2.0348    0.2171 C   0  0  1  0  0  0  0  0  0  0  0  0
   -3.3933   -2.8190    0.9353 N   0  0  0  0  0  0  0  0  0  0  0  0
   -5.4824    2.7033   -1.2119 H   0  0  0  0  0  0  0  0  0  0  0  0
   -4.0500    2.2703   -2.2341 H   0  0  0  0  0  0  0  0  0  0  0  0
   -4.1375    3.8855   -1.4352 H   0  0  0  0  0  0  0  0  0  0  0  0
   -2.5776    2.3927   -0.2153 H   0  0  0  0  0  0  0  0  0  0  0  0
   -3.9971    2.8285    0.8023 H   0  0  0  0  0  0  0  0  0  0  0  0
   -5.0912    0.6669    0.2836 H   0  0  0  0  0  0  0  0  0  0  0  0
   -3.7661    0.2059   -0.8166 H   0  0  0  0  0  0  0  0  0  0  0  0
   -2.9162    0.9816    2.0108 H   0  0  0  0  0  0  0  0  0  0  0  0
   -3.9779   -0.4165    1.9416 H   0  0  0  0  0  0  0  0  0  0  0  0
   -1.6091   -1.0441    1.9799 H   0  0  0  0  0  0  0  0  0  0  0  0
   -0.6501    0.9412    0.8676 H   0  0  0  0  0  0  0  0  0  0  0  0
   -1.3091    0.4152   -0.7176 H   0  0  0  0  0  0  0  0  0  0  0  0
    1.2563    0.3118    2.2350 H   0  0  0  0  0  0  0  0  0  0  0  0
    3.5093    1.2063    2.5233 H   0  0  0  0  0  0  0  0  0  0  0  0
    5.9744    1.0944    2.6559 H   0  0  0  0  0  0  0  0  0  0  0  0
    5.4088    2.7261    2.0773 H   0  0  0  0  0  0  0  0  0  0  0  0
    7.0487    2.1208    1.6341 H   0  0  0  0  0  0  0  0  0  0  0  0
    5.4029   -0.3314   -3.6618 H   0  0  0  0  0  0  0  0  0  0  0  0
    4.2248   -1.5057   -2.9653 H   0  0  0  0  0  0  0  0  0  0  0  0
    3.6623    0.1259   -3.5476 H   0  0  0  0  0  0  0  0  0  0  0  0
    2.1682   -0.7779   -1.8168 H   0  0  0  0  0  0  0  0  0  0  0  0
   -0.2929   -1.8841   -1.7234 H   0  0  0  0  0  0  0  0  0  0  0  0
    0.9259   -2.6991   -0.6735 H   0  0  0  0  0  0  0  0  0  0  0  0
   -1.3347   -3.7841   -0.5746 H   0  0  0  0  0  0  0  0  0  0  0  0
   -0.7347   -3.2213    1.0253 H   0  0  0  0  0  0  0  0  0  0  0  0
   -2.7691   -1.7861   -0.7963 H   0  0  0  0  0  0  0  0  0  0  0  0
   -3.4834   -3.7558    0.4783 H   0  0  0  0  0  0  0  0  0  0  0  0
   -4.3238   -2.3640    0.7943 H   0  0  0  0  0  0  0  0  0  0  0  0
  1  2  1  0
  2  3  1  0
  3  4  1  0
  4  5  1  0
  5  6  1  0
  6  7  1  0
  7  8  1  0
  8  9  2  0
  9 10  1  0
 10 11  2  0
 11 12  1  0
 12 13  1  0
 11 14  1  0
 14 15  1  0
 15 16  1  0
 14 17  2  0
  7 18  1  0
 18 19  1  0
 19 20  1  0
 20 21  1  0
 20  5  1  0
 17  8  1  0
  1 22  1  0
  1 23  1  0
  1 24  1  0
  2 25  1  0
  2 26  1  0
  3 27  1  0
  3 28  1  0
  4 29  1  0
  4 30  1  0
  5 31  1  1
  6 32  1  0
  6 33  1  0
  9 34  1  0
 10 35  1  0
 13 36  1  0
 13 37  1  0
 13 38  1  0
 16 39  1  0
 16 40  1  0
 16 41  1  0
 17 42  1  0
 18 43  1  0
 18 44  1  0
 19 45  1  0
 19 46  1  0
 20 47  1  6
 21 48  1  0
 21 49  1  0
M  END
$$$$
