
     RDKit          3D

 58 59  0  0  0  0  0  0  0  0999 V2000
   -2.5121   -1.0566    2.6427 C   0  0  0  0  0  0  0  0  0  0  0  0
   -1.5946    0.0408    2.0908 C   0  0  0  0  0  0  0  0  0  0  0  0
   -0.5568   -0.5508    1.1755 C   0  0  0  0  0  0  0  0  0  0  0  0
    0.7109   -0.1052    1.0933 N   0  0  0  0  0  0  0  0  0  0  0  0
    1.2244   -0.9099    0.1384 C   0  0  0  0  0  0  0  0  0  0  0  0
    2.6192   -0.8339   -0.3717 C   0  0  0  0  0  0  0  0  0  0  0  0
    2.9405   -1.5254   -1.5536 C   0  0  0  0  0  0  0  0  0  0  0  0
    4.2299   -1.4781   -2.0848 C   0  0  0  0  0  0  0  0  0  0  0  0
    5.2367   -0.7386   -1.4535 C   0  0  0  0  0  0  0  0  0  0  0  0
    6.5544   -0.7154   -2.0329 N   0  0  0  0  0  0  0  0  0  0  0  0
    7.8274    0.3574   -1.5400 S   0  0  0  0  0  0  0  0  0  0  0  0
    7.3380    2.0508   -1.7921 C   0  0  0  0  0  0  0  0  0  0  0  0
    9.0438    0.0836   -2.3786 O   0  0  0  0  0  0  0  0  0  0  0  0
    8.1733    0.1190   -0.0970 O   0  0  0  0  0  0  0  0  0  0  0  0
    4.9314   -0.0576   -0.2633 C   0  0  0  0  0  0  0  0  0  0  0  0
    3.6401   -0.0973    0.2796 C   0  0  0  0  0  0  0  0  0  0  0  0
    3.3867    0.7637    1.7962 Cl  0  0  0  0  0  0  0  0  0  0  0  0
    0.3077   -1.7806   -0.3341 N   0  0  0  0  0  0  0  0  0  0  0  0
   -0.7774   -1.5270    0.3302 O   0  0  0  0  0  0  0  0  0  0  0  0
   -2.3570    1.2000    1.3903 C   0  0  2  0  0  0  0  0  0  0  0  0
   -3.2399    1.8994    2.3254 N   0  0  0  0  0  0  0  0  0  0  0  0
   -3.0788    0.7569    0.1206 C   0  0  0  0  0  0  0  0  0  0  0  0
   -2.3228    0.7280   -1.0123 F   0  0  0  0  0  0  0  0  0  0  0  0
   -4.3665    0.3402    0.0297 C   0  0  0  0  0  0  0  0  0  0  0  0
   -4.9264   -0.1882   -1.2493 C   0  0  0  0  0  0  0  0  0  0  0  0
   -6.2773   -0.7776   -0.8712 C   0  0  0  0  0  0  0  0  0  0  0  0
   -6.6817   -0.1220    0.4452 C   0  0  0  0  0  0  0  0  0  0  0  0
   -5.3944    0.3403    1.1196 C   0  0  0  0  0  0  0  0  0  0  0  0
    0.7059    0.7661   -1.3686 O   0  0  0  0  0  0  0  0  0  0  0  0
    0.4466    0.0845   -0.3409 C   0  0  0  0  0  0  0  0  0  0  0  0
    1.4566   -0.6431    0.2814 O   0  0  0  0  0  0  0  0  0  0  0  0
   -0.9290    0.1049    0.2425 C   0  0  0  0  0  0  0  0  0  0  0  0
   -1.1360   -1.0300    1.0052 F   0  0  0  0  0  0  0  0  0  0  0  0
   -1.8711    0.1450   -0.7694 F   0  0  0  0  0  0  0  0  0  0  0  0
   -1.0711    1.2227    1.0426 F   0  0  0  0  0  0  0  0  0  0  0  0
   -1.9072   -1.8167    3.1823 H   0  0  0  0  0  0  0  0  0  0  0  0
   -3.2354   -0.6260    3.3663 H   0  0  0  0  0  0  0  0  0  0  0  0
   -3.0610   -1.5676    1.8241 H   0  0  0  0  0  0  0  0  0  0  0  0
   -1.0507    0.4719    2.9608 H   0  0  0  0  0  0  0  0  0  0  0  0
    2.1891   -2.1009   -2.0798 H   0  0  0  0  0  0  0  0  0  0  0  0
    4.4428   -2.0174   -2.9994 H   0  0  0  0  0  0  0  0  0  0  0  0
    6.7525   -1.3265   -2.8568 H   0  0  0  0  0  0  0  0  0  0  0  0
    8.1823    2.7225   -1.5335 H   0  0  0  0  0  0  0  0  0  0  0  0
    6.4674    2.2973   -1.1518 H   0  0  0  0  0  0  0  0  0  0  0  0
    7.0624    2.2004   -2.8563 H   0  0  0  0  0  0  0  0  0  0  0  0
    5.6911    0.4995    0.2634 H   0  0  0  0  0  0  0  0  0  0  0  0
   -1.5811    1.9316    1.0641 H   0  0  0  0  0  0  0  0  0  0  0  0
   -2.6706    2.2331    3.1370 H   0  0  0  0  0  0  0  0  0  0  0  0
   -3.5932    2.7636    1.8526 H   0  0  0  0  0  0  0  0  0  0  0  0
   -5.0504    0.6441   -1.9757 H   0  0  0  0  0  0  0  0  0  0  0  0
   -4.2695   -0.9755   -1.6802 H   0  0  0  0  0  0  0  0  0  0  0  0
   -6.1737   -1.8749   -0.7181 H   0  0  0  0  0  0  0  0  0  0  0  0
   -7.0342   -0.5930   -1.6640 H   0  0  0  0  0  0  0  0  0  0  0  0
   -7.3288    0.7579    0.2319 H   0  0  0  0  0  0  0  0  0  0  0  0
   -7.2433   -0.8319    1.0907 H   0  0  0  0  0  0  0  0  0  0  0  0
   -5.5511    1.3581    1.5322 H   0  0  0  0  0  0  0  0  0  0  0  0
   -5.1162   -0.3656    1.9261 H   0  0  0  0  0  0  0  0  0  0  0  0
    2.3980   -0.6501   -0.0927 H   0  0  0  0  0  0  0  0  0  0  0  0
  1  2  1  0
  2  3  1  0
  3  4  2  0
  4  5  1  0
  5  6  1  0
  6  7  2  0
  7  8  1  0
  8  9  2  0
  9 10  1  0
 10 11  1  0
 11 12  1  0
 11 13  2  0
 11 14  2  0
  9 15  1  0
 15 16  2  0
 16 17  1  0
  5 18  2  0
 18 19  1  0
  2 20  1  0
 20 21  1  0
 20 22  1  0
 22 23  1  0
 22 24  2  3
 24 25  1  0
 25 26  1  0
 26 27  1  0
 27 28  1  0
 29 30  2  0
 30 31  1  0
 30 32  1  0
 32 33  1  0
 32 34  1  0
 32 35  1  0
 19  3  1  0
 28 24  1  0
 16  6  1  0
  1 36  1  0
  1 37  1  0
  1 38  1  0
  2 39  1  0
  7 40  1  0
  8 41  1  0
 10 42  1  0
 12 43  1  0
 12 44  1  0
 12 45  1  0
 15 46  1  0
 20 47  1  6
 21 48  1  0
 21 49  1  0
 25 50  1  0
 25 51  1  0
 26 52  1  0
 26 53  1  0
 27 54  1  0
 27 55  1  0
 28 56  1  0
 28 57  1  0
 31 58  1  0
M  END
$$$$
