
     RDKit          3D

 67 68  0  0  0  0  0  0  0  0999 V2000
    4.4209    0.8867    3.5415 C   0  0  0  0  0  0  0  0  0  0  0  0
    4.2616   -0.4850    4.1868 C   0  0  0  0  0  0  0  0  0  0  0  0
    4.1567   -1.4972    3.1884 O   0  0  0  0  0  0  0  0  0  0  0  0
    5.2494   -1.9700    2.4529 C   0  0  0  0  0  0  0  0  0  0  0  0
    6.4195   -1.5755    2.7115 O   0  0  0  0  0  0  0  0  0  0  0  0
    5.0093   -2.9075    1.3096 C   0  0  0  0  0  0  0  0  0  0  0  0
    6.1747   -3.5946    1.0036 F   0  0  0  0  0  0  0  0  0  0  0  0
    4.0753   -3.8562    1.6982 F   0  0  0  0  0  0  0  0  0  0  0  0
    4.5284   -2.1415    0.1380 N   0  0  0  0  0  0  0  0  0  0  0  0
    3.1779   -1.9857   -0.0496 C   0  0  0  0  0  0  0  0  0  0  0  0
    2.6718   -1.2309   -1.1213 C   0  0  0  0  0  0  0  0  0  0  0  0
    1.2083   -1.0675   -1.3125 C   0  0  0  0  0  0  0  0  0  0  0  0
    0.3652   -0.8427   -0.2113 C   0  0  0  0  0  0  0  0  0  0  0  0
   -1.0107   -0.6836   -0.3917 C   0  0  0  0  0  0  0  0  0  0  0  0
   -1.5792   -0.7507   -1.6757 C   0  0  0  0  0  0  0  0  0  0  0  0
   -3.0789   -0.5373   -1.8408 C   0  0  2  0  0  0  0  0  0  0  0  0
   -3.7081   -1.5419   -2.8203 C   0  0  0  0  0  0  0  0  0  0  0  0
   -3.4478    0.9258   -2.2071 C   0  0  2  0  0  0  0  0  0  0  0  0
   -2.9395    1.2951   -3.5340 N   0  0  0  0  0  0  0  0  0  0  0  0
   -2.9758    1.8960   -1.1374 C   0  0  0  0  0  0  0  0  0  0  0  0
   -1.8418    2.4379   -1.2507 O   0  0  0  0  0  0  0  0  0  0  0  0
   -3.7560    2.1465    0.0466 N   0  0  0  0  0  0  0  0  0  0  0  0
   -3.2243    2.8597    1.1952 C   0  0  0  0  0  0  0  0  0  0  0  0
   -4.2819    2.7346    2.2832 C   0  0  0  0  0  0  0  0  0  0  0  0
   -5.5682    2.3330    1.5654 C   0  0  2  0  0  0  0  0  0  0  0  0
   -6.2948    1.4256    2.3181 F   0  0  0  0  0  0  0  0  0  0  0  0
   -5.1331    1.7213    0.2391 C   0  0  0  0  0  0  0  0  0  0  0  0
   -0.7318   -0.9661   -2.7789 C   0  0  0  0  0  0  0  0  0  0  0  0
    0.6446   -1.1251   -2.5982 C   0  0  0  0  0  0  0  0  0  0  0  0
    3.5783   -0.6239   -1.9976 C   0  0  0  0  0  0  0  0  0  0  0  0
    4.9461   -0.7555   -1.7855 C   0  0  0  0  0  0  0  0  0  0  0  0
    5.4124   -1.5047   -0.7029 C   0  0  0  0  0  0  0  0  0  0  0  0
    6.6568   -1.5745   -0.5089 O   0  0  0  0  0  0  0  0  0  0  0  0
    0.9060    0.9552   -1.1068 O   0  0  0  0  0  0  0  0  0  0  0  0
    0.4988    0.1505   -0.2268 C   0  0  0  0  0  0  0  0  0  0  0  0
    1.4165   -0.5716    0.5303 O   0  0  0  0  0  0  0  0  0  0  0  0
   -0.9647    0.0160    0.0439 C   0  0  0  0  0  0  0  0  0  0  0  0
   -1.2257   -1.2061    0.6363 F   0  0  0  0  0  0  0  0  0  0  0  0
   -1.6744    0.1028   -1.1402 F   0  0  0  0  0  0  0  0  0  0  0  0
   -1.3688    1.0286    0.8932 F   0  0  0  0  0  0  0  0  0  0  0  0
    4.4442    1.6695    4.3286 H   0  0  0  0  0  0  0  0  0  0  0  0
    3.5668    1.0856    2.8599 H   0  0  0  0  0  0  0  0  0  0  0  0
    5.3667    0.9344    2.9624 H   0  0  0  0  0  0  0  0  0  0  0  0
    3.3312   -0.4883    4.7927 H   0  0  0  0  0  0  0  0  0  0  0  0
    5.1167   -0.6954    4.8654 H   0  0  0  0  0  0  0  0  0  0  0  0
    2.4773   -2.4546    0.6306 H   0  0  0  0  0  0  0  0  0  0  0  0
    0.7726   -0.7671    0.7892 H   0  0  0  0  0  0  0  0  0  0  0  0
   -1.6335   -0.4956    0.4745 H   0  0  0  0  0  0  0  0  0  0  0  0
   -3.5594   -0.7571   -0.8611 H   0  0  0  0  0  0  0  0  0  0  0  0
   -3.4061   -2.5772   -2.5532 H   0  0  0  0  0  0  0  0  0  0  0  0
   -3.4062   -1.3368   -3.8682 H   0  0  0  0  0  0  0  0  0  0  0  0
   -4.8160   -1.4808   -2.7635 H   0  0  0  0  0  0  0  0  0  0  0  0
   -4.5561    0.9822   -2.2606 H   0  0  0  0  0  0  0  0  0  0  0  0
   -1.8994    1.3942   -3.5120 H   0  0  0  0  0  0  0  0  0  0  0  0
   -3.3302    2.2315   -3.7894 H   0  0  0  0  0  0  0  0  0  0  0  0
   -2.2672    2.4016    1.5277 H   0  0  0  0  0  0  0  0  0  0  0  0
   -3.0614    3.9265    0.9286 H   0  0  0  0  0  0  0  0  0  0  0  0
   -4.4089    3.6906    2.8361 H   0  0  0  0  0  0  0  0  0  0  0  0
   -3.9839    1.9361    2.9984 H   0  0  0  0  0  0  0  0  0  0  0  0
   -6.1876    3.2377    1.3774 H   0  0  0  0  0  0  0  0  0  0  0  0
   -5.7761    2.1003   -0.5844 H   0  0  0  0  0  0  0  0  0  0  0  0
   -5.1816    0.6124    0.2824 H   0  0  0  0  0  0  0  0  0  0  0  0
   -1.1279   -1.0063   -3.7842 H   0  0  0  0  0  0  0  0  0  0  0  0
    1.2677   -1.3057   -3.4652 H   0  0  0  0  0  0  0  0  0  0  0  0
    3.2301   -0.0206   -2.8266 H   0  0  0  0  0  0  0  0  0  0  0  0
    5.6428   -0.2618   -2.4521 H   0  0  0  0  0  0  0  0  0  0  0  0
    2.4122   -0.4755    0.3702 H   0  0  0  0  0  0  0  0  0  0  0  0
  1  2  1  0
  2  3  1  0
  3  4  1  0
  4  5  2  0
  4  6  1  0
  6  7  1  0
  6  8  1  0
  6  9  1  0
  9 10  1  0
 10 11  2  0
 11 12  1  0
 12 13  2  0
 13 14  1  0
 14 15  2  0
 15 16  1  0
 16 17  1  0
 16 18  1  0
 18 19  1  0
 18 20  1  0
 20 21  2  0
 20 22  1  0
 22 23  1  0
 23 24  1  0
 24 25  1  0
 25 26  1  0
 25 27  1  0
 15 28  1  0
 28 29  2  0
 11 30  1  0
 30 31  2  0
 31 32  1  0
 32 33  2  0
 34 35  2  0
 35 36  1  0
 35 37  1  0
 37 38  1  0
 37 39  1  0
 37 40  1  0
 32  9  1  0
 29 12  1  0
 27 22  1  0
  1 41  1  0
  1 42  1  0
  1 43  1  0
  2 44  1  0
  2 45  1  0
 10 46  1  0
 13 47  1  0
 14 48  1  0
 16 49  1  1
 17 50  1  0
 17 51  1  0
 17 52  1  0
 18 53  1  6
 19 54  1  0
 19 55  1  0
 23 56  1  0
 23 57  1  0
 24 58  1  0
 24 59  1  0
 25 60  1  6
 27 61  1  0
 27 62  1  0
 28 63  1  0
 29 64  1  0
 30 65  1  0
 31 66  1  0
 36 67  1  0
M  END
$$$$
