
     RDKit          3D

 37 37  0  0  0  0  0  0  0  0999 V2000
    5.1944    2.3332   -3.5528 N   0  0  0  0  0  0  0  0  0  0  0  0
    4.8830    1.2750   -3.0088 N   0  0  0  0  0  0  0  0  0  0  0  0
    4.5712    0.2155   -2.4638 N   0  0  0  0  0  0  0  0  0  0  0  0
    3.1836   -0.0651   -2.1098 C   0  0  0  0  0  0  0  0  0  0  0  0
    3.0445   -1.4676   -1.5180 C   0  0  0  0  0  0  0  0  0  0  0  0
    1.9676   -1.3549   -0.4457 C   0  0  0  0  0  0  0  0  0  0  0  0
    1.8551    0.0650   -0.1499 N   0  0  0  0  0  0  0  0  0  0  0  0
    1.0441    0.6235    0.9008 C   0  0  0  0  0  0  0  0  0  0  0  0
    1.1368    1.8545    1.1628 O   0  0  0  0  0  0  0  0  0  0  0  0
    0.0378   -0.2184    1.6570 C   0  0  0  0  0  0  0  0  0  0  0  0
   -0.1908    0.3315    2.9960 N   0  0  0  0  0  0  0  0  0  0  0  0
   -1.2910   -0.3302    0.8782 C   0  0  0  0  0  0  0  0  0  0  0  0
   -2.0559    1.0030    0.7741 C   0  0  0  0  0  0  0  0  0  0  0  0
   -3.2813    0.9203   -0.1528 C   0  0  0  0  0  0  0  0  0  0  0  0
   -4.4335    0.0799    0.4201 C   0  0  0  0  0  0  0  0  0  0  0  0
   -4.1963   -1.3460    0.2149 N   0  0  0  0  0  0  0  0  0  0  0  0
    2.6702    0.8852   -1.0291 C   0  0  0  0  0  0  0  0  0  0  0  0
    2.5394    0.0123   -3.0151 H   0  0  0  0  0  0  0  0  0  0  0  0
    2.7624   -2.2083   -2.2976 H   0  0  0  0  0  0  0  0  0  0  0  0
    4.0006   -1.7851   -1.0445 H   0  0  0  0  0  0  0  0  0  0  0  0
    2.2718   -1.9202    0.4615 H   0  0  0  0  0  0  0  0  0  0  0  0
    0.9986   -1.7387   -0.8294 H   0  0  0  0  0  0  0  0  0  0  0  0
    0.4464   -1.2457    1.7746 H   0  0  0  0  0  0  0  0  0  0  0  0
    0.7144    0.3058    3.5203 H   0  0  0  0  0  0  0  0  0  0  0  0
   -0.8395   -0.3087    3.5098 H   0  0  0  0  0  0  0  0  0  0  0  0
   -1.0871   -0.7208   -0.1422 H   0  0  0  0  0  0  0  0  0  0  0  0
   -1.9277   -1.0757    1.3992 H   0  0  0  0  0  0  0  0  0  0  0  0
   -2.3740    1.3403    1.7844 H   0  0  0  0  0  0  0  0  0  0  0  0
   -1.3809    1.7809    0.3590 H   0  0  0  0  0  0  0  0  0  0  0  0
   -3.6587    1.9556   -0.3015 H   0  0  0  0  0  0  0  0  0  0  0  0
   -2.9827    0.5399   -1.1542 H   0  0  0  0  0  0  0  0  0  0  0  0
   -5.3807    0.3698   -0.0879 H   0  0  0  0  0  0  0  0  0  0  0  0
   -4.5566    0.2882    1.5055 H   0  0  0  0  0  0  0  0  0  0  0  0
   -4.2763   -1.5484   -0.8083 H   0  0  0  0  0  0  0  0  0  0  0  0
   -4.9718   -1.8685    0.6828 H   0  0  0  0  0  0  0  0  0  0  0  0
    3.5058    1.3299   -0.4450 H   0  0  0  0  0  0  0  0  0  0  0  0
    2.0573    1.6931   -1.4851 H   0  0  0  0  0  0  0  0  0  0  0  0
  1  2  2  0
  2  3  2  0
  3  4  1  0
  4  5  1  0
  5  6  1  0
  6  7  1  0
  7  8  1  0
  8  9  2  0
  8 10  1  0
 10 11  1  0
 10 12  1  0
 12 13  1  0
 13 14  1  0
 14 15  1  0
 15 16  1  0
  7 17  1  0
 17  4  1  0
  4 18  1  0
  5 19  1  0
  5 20  1  0
  6 21  1  0
  6 22  1  0
 10 23  1  0
 11 24  1  0
 11 25  1  0
 12 26  1  0
 12 27  1  0
 13 28  1  0
 13 29  1  0
 14 30  1  0
 14 31  1  0
 15 32  1  0
 15 33  1  0
 16 34  1  0
 16 35  1  0
 17 36  1  0
 17 37  1  0
M  CHG  2   1  -1   2   1
M  END
$$$$
