
     RDKit          3D

 52 54  0  0  0  0  0  0  0  0999 V2000
   -3.0745    0.3310    2.2762 N   0  0  0  0  0  0  0  0  0  0  0  0
   -2.3239    0.4105    1.0193 C   0  0  1  0  0  0  0  0  0  0  0  0
   -0.8321    0.0784    1.2620 C   0  0  0  0  0  0  0  0  0  0  0  0
    0.0323    0.3314    0.0489 C   0  0  0  0  0  0  0  0  0  0  0  0
   -0.2217    1.3242   -0.6878 O   0  0  0  0  0  0  0  0  0  0  0  0
    1.1640   -0.5097   -0.2647 N   0  0  0  0  0  0  0  0  0  0  0  0
    1.5805   -0.6582   -1.6672 C   0  0  0  0  0  0  0  0  0  0  0  0
    1.8872   -2.1338   -2.0080 C   0  0  0  0  0  0  0  0  0  0  0  0
    2.2048   -2.9567   -0.8264 N   0  0  0  0  0  0  0  0  0  0  0  0
    2.9340   -2.1876    0.1836 C   0  0  0  0  0  0  0  0  0  0  0  0
    1.9792   -1.1442    0.7927 C   0  0  1  0  0  0  0  0  0  0  0  0
    2.7238   -0.1008    1.6591 C   0  0  0  0  0  0  0  0  0  0  0  0
    3.6248    0.8192    0.8682 C   0  0  0  0  0  0  0  0  0  0  0  0
    4.9847    0.5080    0.6942 C   0  0  0  0  0  0  0  0  0  0  0  0
    5.8125    1.3523   -0.0521 C   0  0  0  0  0  0  0  0  0  0  0  0
    5.2931    2.5170   -0.6226 C   0  0  0  0  0  0  0  0  0  0  0  0
    3.9466    2.8428   -0.4421 C   0  0  0  0  0  0  0  0  0  0  0  0
    3.1158    2.0014    0.3036 C   0  0  0  0  0  0  0  0  0  0  0  0
   -2.9483   -0.5418   -0.0224 C   0  0  0  0  0  0  0  0  0  0  0  0
   -4.3657   -0.1437   -0.3509 C   0  0  0  0  0  0  0  0  0  0  0  0
   -5.4423   -0.7595    0.3106 C   0  0  0  0  0  0  0  0  0  0  0  0
   -6.7565   -0.3749    0.0291 C   0  0  0  0  0  0  0  0  0  0  0  0
   -7.0066    0.6306   -0.9079 C   0  0  0  0  0  0  0  0  0  0  0  0
   -5.9428    1.2559   -1.5632 C   0  0  0  0  0  0  0  0  0  0  0  0
   -4.6253    0.8760   -1.2861 C   0  0  0  0  0  0  0  0  0  0  0  0
   -3.6053    1.5023   -1.9262 F   0  0  0  0  0  0  0  0  0  0  0  0
   -2.9204   -0.6063    2.7153 H   0  0  0  0  0  0  0  0  0  0  0  0
   -2.7040    1.0524    2.9369 H   0  0  0  0  0  0  0  0  0  0  0  0
   -2.4007    1.4547    0.6405 H   0  0  0  0  0  0  0  0  0  0  0  0
   -0.7621   -0.9847    1.5700 H   0  0  0  0  0  0  0  0  0  0  0  0
   -0.4470    0.7048    2.0942 H   0  0  0  0  0  0  0  0  0  0  0  0
    2.4922   -0.0447   -1.8343 H   0  0  0  0  0  0  0  0  0  0  0  0
    0.7963   -0.2855   -2.3624 H   0  0  0  0  0  0  0  0  0  0  0  0
    0.9994   -2.5785   -2.5066 H   0  0  0  0  0  0  0  0  0  0  0  0
    2.7282   -2.1691   -2.7368 H   0  0  0  0  0  0  0  0  0  0  0  0
    2.8122   -3.7519   -1.1344 H   0  0  0  0  0  0  0  0  0  0  0  0
    3.2927   -2.8710    0.9845 H   0  0  0  0  0  0  0  0  0  0  0  0
    3.8249   -1.7135   -0.2817 H   0  0  0  0  0  0  0  0  0  0  0  0
    1.3087   -1.7169    1.4664 H   0  0  0  0  0  0  0  0  0  0  0  0
    1.9813    0.5086    2.2165 H   0  0  0  0  0  0  0  0  0  0  0  0
    3.3192   -0.6324    2.4336 H   0  0  0  0  0  0  0  0  0  0  0  0
    5.4026   -0.3898    1.1324 H   0  0  0  0  0  0  0  0  0  0  0  0
    6.8571    1.1035   -0.1875 H   0  0  0  0  0  0  0  0  0  0  0  0
    5.9351    3.1696   -1.2000 H   0  0  0  0  0  0  0  0  0  0  0  0
    3.5469    3.7494   -0.8777 H   0  0  0  0  0  0  0  0  0  0  0  0
    2.0793    2.2757    0.4453 H   0  0  0  0  0  0  0  0  0  0  0  0
   -2.9225   -1.5862    0.3603 H   0  0  0  0  0  0  0  0  0  0  0  0
   -2.3479   -0.5346   -0.9576 H   0  0  0  0  0  0  0  0  0  0  0  0
   -5.2637   -1.5351    1.0452 H   0  0  0  0  0  0  0  0  0  0  0  0
   -7.5813   -0.8548    0.5399 H   0  0  0  0  0  0  0  0  0  0  0  0
   -8.0248    0.9277   -1.1237 H   0  0  0  0  0  0  0  0  0  0  0  0
   -6.1400    2.0382   -2.2848 H   0  0  0  0  0  0  0  0  0  0  0  0
  1  2  1  0
  2  3  1  0
  3  4  1  0
  4  5  2  0
  4  6  1  0
  6  7  1  0
  7  8  1  0
  8  9  1  0
  9 10  1  0
 10 11  1  0
 11 12  1  0
 12 13  1  0
 13 14  2  0
 14 15  1  0
 15 16  2  0
 16 17  1  0
 17 18  2  0
  2 19  1  0
 19 20  1  0
 20 21  2  0
 21 22  1  0
 22 23  2  0
 23 24  1  0
 24 25  2  0
 25 26  1  0
 11  6  1  0
 18 13  1  0
 25 20  1  0
  1 27  1  0
  1 28  1  0
  2 29  1  6
  3 30  1  0
  3 31  1  0
  7 32  1  0
  7 33  1  0
  8 34  1  0
  8 35  1  0
  9 36  1  0
 10 37  1  0
 10 38  1  0
 11 39  1  1
 12 40  1  0
 12 41  1  0
 14 42  1  0
 15 43  1  0
 16 44  1  0
 17 45  1  0
 18 46  1  0
 19 47  1  0
 19 48  1  0
 21 49  1  0
 22 50  1  0
 23 51  1  0
 24 52  1  0
M  END
$$$$
