
     RDKit          3D

 55 57  0  0  0  0  0  0  0  0999 V2000
    7.6230    0.6195   -1.3778 C   0  0  0  0  0  0  0  0  0  0  0  0
    6.8262    0.5606   -0.1992 O   0  0  0  0  0  0  0  0  0  0  0  0
    5.6785   -0.2335   -0.0584 C   0  0  0  0  0  0  0  0  0  0  0  0
    5.2014   -1.0618   -1.0924 C   0  0  0  0  0  0  0  0  0  0  0  0
    4.0513   -1.8340   -0.9031 C   0  0  0  0  0  0  0  0  0  0  0  0
    3.3651   -1.7963    0.3204 C   0  0  0  0  0  0  0  0  0  0  0  0
    2.1048   -2.5950    0.5159 C   0  0  0  0  0  0  0  0  0  0  0  0
    0.9315   -1.7211    0.4022 N   0  0  0  0  0  0  0  0  0  0  0  0
    0.2481   -1.2244    1.5941 C   0  0  0  0  0  0  0  0  0  0  0  0
    0.0787    0.2900    1.4902 C   0  0  0  0  0  0  0  0  0  0  0  0
   -0.6084    0.6753    0.2435 N   0  0  0  0  0  0  0  0  0  0  0  0
   -1.2292    1.9804    0.1849 C   0  0  0  0  0  0  0  0  0  0  0  0
   -0.8726    2.8709    1.0036 O   0  0  0  0  0  0  0  0  0  0  0  0
   -2.2714    2.3304   -0.8552 C   0  0  0  0  0  0  0  0  0  0  0  0
   -3.6226    2.8007   -0.2669 C   0  0  2  0  0  0  0  0  0  0  0  0
   -3.5028    4.1602    0.2697 N   0  0  0  0  0  0  0  0  0  0  0  0
   -4.2237    1.8382    0.7905 C   0  0  0  0  0  0  0  0  0  0  0  0
   -4.3203    0.4049    0.3130 C   0  0  0  0  0  0  0  0  0  0  0  0
   -5.0584    0.0917   -0.8429 C   0  0  0  0  0  0  0  0  0  0  0  0
   -5.1363   -1.2280   -1.2982 C   0  0  0  0  0  0  0  0  0  0  0  0
   -5.8383   -1.5142   -2.4225 F   0  0  0  0  0  0  0  0  0  0  0  0
   -4.4943   -2.2505   -0.5946 C   0  0  0  0  0  0  0  0  0  0  0  0
   -4.5679   -3.5305   -1.0362 F   0  0  0  0  0  0  0  0  0  0  0  0
   -3.7861   -1.9561    0.5726 C   0  0  0  0  0  0  0  0  0  0  0  0
   -3.7045   -0.6383    1.0333 C   0  0  0  0  0  0  0  0  0  0  0  0
   -3.0341   -0.3873    2.1857 F   0  0  0  0  0  0  0  0  0  0  0  0
   -0.5840   -0.1896   -0.9540 C   0  0  0  0  0  0  0  0  0  0  0  0
    0.4744   -1.2528   -0.8755 C   0  0  0  0  0  0  0  0  0  0  0  0
    0.9303   -1.7515   -1.9399 O   0  0  0  0  0  0  0  0  0  0  0  0
    3.8379   -0.9659    1.3475 C   0  0  0  0  0  0  0  0  0  0  0  0
    4.9872   -0.1938    1.1579 C   0  0  0  0  0  0  0  0  0  0  0  0
    8.4639    1.3237   -1.2121 H   0  0  0  0  0  0  0  0  0  0  0  0
    7.0151    0.9863   -2.2317 H   0  0  0  0  0  0  0  0  0  0  0  0
    8.0395   -0.3839   -1.6077 H   0  0  0  0  0  0  0  0  0  0  0  0
    5.7093   -1.1138   -2.0456 H   0  0  0  0  0  0  0  0  0  0  0  0
    3.6962   -2.4598   -1.7124 H   0  0  0  0  0  0  0  0  0  0  0  0
    2.0336   -3.4209   -0.2253 H   0  0  0  0  0  0  0  0  0  0  0  0
    2.1326   -3.0819    1.5151 H   0  0  0  0  0  0  0  0  0  0  0  0
   -0.7500   -1.7066    1.6676 H   0  0  0  0  0  0  0  0  0  0  0  0
    0.8176   -1.4672    2.5171 H   0  0  0  0  0  0  0  0  0  0  0  0
    1.0758    0.7802    1.5252 H   0  0  0  0  0  0  0  0  0  0  0  0
   -0.5097    0.6318    2.3697 H   0  0  0  0  0  0  0  0  0  0  0  0
   -1.8601    3.1314   -1.5064 H   0  0  0  0  0  0  0  0  0  0  0  0
   -2.4768    1.4693   -1.5209 H   0  0  0  0  0  0  0  0  0  0  0  0
   -4.3329    2.8515   -1.1222 H   0  0  0  0  0  0  0  0  0  0  0  0
   -4.4651    4.5425    0.4198 H   0  0  0  0  0  0  0  0  0  0  0  0
   -3.0412    4.1359    1.2071 H   0  0  0  0  0  0  0  0  0  0  0  0
   -3.6231    1.9017    1.7228 H   0  0  0  0  0  0  0  0  0  0  0  0
   -5.2469    2.1855    1.0509 H   0  0  0  0  0  0  0  0  0  0  0  0
   -5.5712    0.8686   -1.3949 H   0  0  0  0  0  0  0  0  0  0  0  0
   -3.3011   -2.7513    1.1241 H   0  0  0  0  0  0  0  0  0  0  0  0
   -1.5724   -0.6789   -1.0786 H   0  0  0  0  0  0  0  0  0  0  0  0
   -0.3738    0.4308   -1.8525 H   0  0  0  0  0  0  0  0  0  0  0  0
    3.3155   -0.9143    2.2945 H   0  0  0  0  0  0  0  0  0  0  0  0
    5.3416    0.4416    1.9597 H   0  0  0  0  0  0  0  0  0  0  0  0
  1  2  1  0
  2  3  1  0
  3  4  2  0
  4  5  1  0
  5  6  2  0
  6  7  1  0
  7  8  1  0
  8  9  1  0
  9 10  1  0
 10 11  1  0
 11 12  1  0
 12 13  2  0
 12 14  1  0
 14 15  1  0
 15 16  1  0
 15 17  1  0
 17 18  1  0
 18 19  2  0
 19 20  1  0
 20 21  1  0
 20 22  2  0
 22 23  1  0
 22 24  1  0
 24 25  2  0
 25 26  1  0
 11 27  1  0
 27 28  1  0
 28 29  2  0
  6 30  1  0
 30 31  2  0
 31  3  1  0
 28  8  1  0
 25 18  1  0
  1 32  1  0
  1 33  1  0
  1 34  1  0
  4 35  1  0
  5 36  1  0
  7 37  1  0
  7 38  1  0
  9 39  1  0
  9 40  1  0
 10 41  1  0
 10 42  1  0
 14 43  1  0
 14 44  1  0
 15 45  1  6
 16 46  1  0
 16 47  1  0
 17 48  1  0
 17 49  1  0
 19 50  1  0
 24 51  1  0
 27 52  1  0
 27 53  1  0
 30 54  1  0
 31 55  1  0
M  END
$$$$
