
     RDKit          3D

 52 56  0  0  0  0  0  0  0  0999 V2000
    3.2911   -1.8288    1.0183 N   0  0  0  0  0  0  0  0  0  0  0  0
    2.4363   -0.7569    0.4936 C   0  0  1  0  0  0  0  0  0  0  0  0
    1.1548   -0.6140    1.3565 C   0  0  0  0  0  0  0  0  0  0  0  0
   -0.0663   -0.0788    0.5533 C   0  0  1  0  0  0  0  0  0  0  0  0
   -1.3153   -0.2164    1.3550 N   0  0  0  0  0  0  0  0  0  0  0  0
   -1.6312   -1.6220    1.7308 C   0  0  0  0  0  0  0  0  0  0  0  0
   -3.1011   -1.7063    1.6596 C   0  0  0  0  0  0  0  0  0  0  0  0
   -3.9325   -2.7559    1.3242 C   0  0  0  0  0  0  0  0  0  0  0  0
   -4.9299   -2.2758    0.5473 N   0  0  0  0  0  0  0  0  0  0  0  0
   -4.7173   -0.9767    0.3754 N   0  0  0  0  0  0  0  0  0  0  0  0
   -5.4743   -0.1586   -0.5261 C   0  0  0  0  0  0  0  0  0  0  0  0
   -5.1987    1.1691   -0.6492 N   0  0  0  0  0  0  0  0  0  0  0  0
   -5.9112    1.9575   -1.4951 C   0  0  0  0  0  0  0  0  0  0  0  0
   -6.9452    1.4086   -2.2516 C   0  0  0  0  0  0  0  0  0  0  0  0
   -7.2194    0.0489   -2.1127 C   0  0  0  0  0  0  0  0  0  0  0  0
   -6.4839   -0.7066   -1.2562 N   0  0  0  0  0  0  0  0  0  0  0  0
   -3.6110   -0.6265    1.0602 C   0  0  0  0  0  0  0  0  0  0  0  0
   -2.5274    0.2939    0.6564 C   0  0  0  0  0  0  0  0  0  0  0  0
    0.1588    1.4086    0.1714 C   0  0  0  0  0  0  0  0  0  0  0  0
    1.4328    1.6489   -0.6441 C   0  0  0  0  0  0  0  0  0  0  0  0
    2.5476    1.7759    0.2121 O   0  0  0  0  0  0  0  0  0  0  0  0
    3.2583    0.5692    0.4566 C   0  0  2  0  0  0  0  0  0  0  0  0
    4.5151    0.5072   -0.4064 C   0  0  0  0  0  0  0  0  0  0  0  0
    5.7394    0.9265    0.1551 C   0  0  0  0  0  0  0  0  0  0  0  0
    6.9163    0.9146   -0.5982 C   0  0  0  0  0  0  0  0  0  0  0  0
    8.0839    1.3154   -0.0374 F   0  0  0  0  0  0  0  0  0  0  0  0
    6.8907    0.4950   -1.9274 C   0  0  0  0  0  0  0  0  0  0  0  0
    5.6880    0.0915   -2.5069 C   0  0  0  0  0  0  0  0  0  0  0  0
    4.5034    0.0998   -1.7622 C   0  0  0  0  0  0  0  0  0  0  0  0
    3.3665   -0.2951   -2.3816 F   0  0  0  0  0  0  0  0  0  0  0  0
    2.8014   -2.7453    0.8965 H   0  0  0  0  0  0  0  0  0  0  0  0
    3.4416   -1.6862    2.0442 H   0  0  0  0  0  0  0  0  0  0  0  0
    2.1358   -1.0615   -0.5283 H   0  0  0  0  0  0  0  0  0  0  0  0
    1.3447    0.0356    2.2394 H   0  0  0  0  0  0  0  0  0  0  0  0
    0.9161   -1.6177    1.7614 H   0  0  0  0  0  0  0  0  0  0  0  0
   -0.1703   -0.6723   -0.3844 H   0  0  0  0  0  0  0  0  0  0  0  0
   -1.1931   -2.3529    1.0135 H   0  0  0  0  0  0  0  0  0  0  0  0
   -1.2888   -1.8325    2.7656 H   0  0  0  0  0  0  0  0  0  0  0  0
   -3.7477   -3.8074    1.4981 H   0  0  0  0  0  0  0  0  0  0  0  0
   -5.6747    3.0098   -1.5790 H   0  0  0  0  0  0  0  0  0  0  0  0
   -7.5224    2.0236   -2.9298 H   0  0  0  0  0  0  0  0  0  0  0  0
   -8.0168   -0.4065   -2.6847 H   0  0  0  0  0  0  0  0  0  0  0  0
   -2.4189    0.2449   -0.4507 H   0  0  0  0  0  0  0  0  0  0  0  0
   -2.7574    1.3287    0.9860 H   0  0  0  0  0  0  0  0  0  0  0  0
   -0.6872    1.7682   -0.4505 H   0  0  0  0  0  0  0  0  0  0  0  0
    0.1785    2.0358    1.0898 H   0  0  0  0  0  0  0  0  0  0  0  0
    1.3182    2.6209   -1.1693 H   0  0  0  0  0  0  0  0  0  0  0  0
    1.5542    0.8989   -1.4483 H   0  0  0  0  0  0  0  0  0  0  0  0
    3.6072    0.6783    1.5079 H   0  0  0  0  0  0  0  0  0  0  0  0
    5.7868    1.2662    1.1824 H   0  0  0  0  0  0  0  0  0  0  0  0
    7.8019    0.4864   -2.5116 H   0  0  0  0  0  0  0  0  0  0  0  0
    5.6728   -0.2272   -3.5414 H   0  0  0  0  0  0  0  0  0  0  0  0
  1  2  1  0
  2  3  1  0
  3  4  1  0
  4  5  1  0
  5  6  1  0
  6  7  1  0
  7  8  1  0
  8  9  2  0
  9 10  1  0
 10 11  1  0
 11 12  2  0
 12 13  1  0
 13 14  2  0
 14 15  1  0
 15 16  2  0
 10 17  1  0
 17 18  1  0
  4 19  1  0
 19 20  1  0
 20 21  1  0
 21 22  1  0
 22 23  1  0
 23 24  2  0
 24 25  1  0
 25 26  1  0
 25 27  2  0
 27 28  1  0
 28 29  2  0
 29 30  1  0
 22  2  1  0
 29 23  1  0
 18  5  1  0
 17  7  2  0
 16 11  1  0
  1 31  1  0
  1 32  1  0
  2 33  1  6
  3 34  1  0
  3 35  1  0
  4 36  1  6
  6 37  1  0
  6 38  1  0
  8 39  1  0
 13 40  1  0
 14 41  1  0
 15 42  1  0
 18 43  1  0
 18 44  1  0
 19 45  1  0
 19 46  1  0
 20 47  1  0
 20 48  1  0
 22 49  1  1
 24 50  1  0
 27 51  1  0
 28 52  1  0
M  END
$$$$
