
     RDKit          3D

 38 40  0  0  0  0  0  0  0  0999 V2000
   -2.3116   -2.1959   -1.5299 N   0  0  0  0  0  0  0  0  0  0  0  0
   -1.2149   -1.5237   -0.8284 C   0  0  1  0  0  0  0  0  0  0  0  0
   -0.7852   -0.2648   -1.6156 C   0  0  0  0  0  0  0  0  0  0  0  0
    0.4510    0.3788   -1.0579 C   0  0  0  0  0  0  0  0  0  0  0  0
    1.6656   -0.2248   -0.8118 C   0  0  0  0  0  0  0  0  0  0  0  0
    2.4958    0.7513   -0.3934 N   0  0  0  0  0  0  0  0  0  0  0  0
    3.8814    0.6347   -0.0095 C   0  0  0  0  0  0  0  0  0  0  0  0
    4.5083   -0.6203    0.1038 C   0  0  0  0  0  0  0  0  0  0  0  0
    5.8518   -0.6920    0.4806 C   0  0  0  0  0  0  0  0  0  0  0  0
    6.5510    0.4438    0.7387 N   0  0  0  0  0  0  0  0  0  0  0  0
    5.9753    1.6704    0.6413 C   0  0  0  0  0  0  0  0  0  0  0  0
    4.6346    1.7886    0.2683 C   0  0  0  0  0  0  0  0  0  0  0  0
    1.8214    1.8923   -0.4043 N   0  0  0  0  0  0  0  0  0  0  0  0
    0.5760    1.6970   -0.8121 N   0  0  0  0  0  0  0  0  0  0  0  0
   -1.6179   -1.2121    0.6349 C   0  0  0  0  0  0  0  0  0  0  0  0
   -2.8272   -0.3089    0.7518 C   0  0  0  0  0  0  0  0  0  0  0  0
   -4.1189   -0.8397    0.5849 C   0  0  0  0  0  0  0  0  0  0  0  0
   -5.2427   -0.0128    0.6744 C   0  0  0  0  0  0  0  0  0  0  0  0
   -6.4822   -0.5368    0.5069 F   0  0  0  0  0  0  0  0  0  0  0  0
   -5.0889    1.3507    0.9386 C   0  0  0  0  0  0  0  0  0  0  0  0
   -6.1780    2.1539    1.0265 F   0  0  0  0  0  0  0  0  0  0  0  0
   -3.8117    1.8864    1.1206 C   0  0  0  0  0  0  0  0  0  0  0  0
   -2.6836    1.0643    1.0326 C   0  0  0  0  0  0  0  0  0  0  0  0
   -1.4582    1.6073    1.2391 F   0  0  0  0  0  0  0  0  0  0  0  0
   -1.9789   -2.4711   -2.4828 H   0  0  0  0  0  0  0  0  0  0  0  0
   -2.5184   -3.0936   -1.0339 H   0  0  0  0  0  0  0  0  0  0  0  0
   -0.3496   -2.2243   -0.7939 H   0  0  0  0  0  0  0  0  0  0  0  0
   -1.6155    0.4733   -1.6360 H   0  0  0  0  0  0  0  0  0  0  0  0
   -0.5699   -0.5449   -2.6692 H   0  0  0  0  0  0  0  0  0  0  0  0
    1.9152   -1.2673   -0.9501 H   0  0  0  0  0  0  0  0  0  0  0  0
    3.9735   -1.5395   -0.0864 H   0  0  0  0  0  0  0  0  0  0  0  0
    6.3388   -1.6540    0.5699 H   0  0  0  0  0  0  0  0  0  0  0  0
    6.5590    2.5561    0.8539 H   0  0  0  0  0  0  0  0  0  0  0  0
    4.1919    2.7735    0.1943 H   0  0  0  0  0  0  0  0  0  0  0  0
   -0.7505   -0.7722    1.1724 H   0  0  0  0  0  0  0  0  0  0  0  0
   -1.8349   -2.1691    1.1581 H   0  0  0  0  0  0  0  0  0  0  0  0
   -4.2567   -1.8955    0.3897 H   0  0  0  0  0  0  0  0  0  0  0  0
   -3.6952    2.9411    1.3351 H   0  0  0  0  0  0  0  0  0  0  0  0
  1  2  1  0
  2  3  1  0
  3  4  1  0
  4  5  2  0
  5  6  1  0
  6  7  1  0
  7  8  2  0
  8  9  1  0
  9 10  2  0
 10 11  1  0
 11 12  2  0
  6 13  1  0
 13 14  2  0
  2 15  1  0
 15 16  1  0
 16 17  2  0
 17 18  1  0
 18 19  1  0
 18 20  2  0
 20 21  1  0
 20 22  1  0
 22 23  2  0
 23 24  1  0
 14  4  1  0
 23 16  1  0
 12  7  1  0
  1 25  1  0
  1 26  1  0
  2 27  1  1
  3 28  1  0
  3 29  1  0
  5 30  1  0
  8 31  1  0
  9 32  1  0
 11 33  1  0
 12 34  1  0
 15 35  1  0
 15 36  1  0
 17 37  1  0
 22 38  1  0
M  END
$$$$
