
     RDKit          3D

 71 75  0  0  0  0  0  0  0  0999 V2000
   -2.0137    2.4394   -0.9064 O   0  0  0  0  0  0  0  0  0  0  0  0
   -1.7635    3.0204    0.1845 C   0  0  0  0  0  0  0  0  0  0  0  0
   -1.0126    2.2722    1.2639 C   0  0  2  0  0  0  0  0  0  0  0  0
    0.4944    2.3021    1.0076 C   0  0  0  0  0  0  0  0  0  0  0  0
    1.0110    0.9338    1.4694 C   0  0  2  0  0  0  0  0  0  0  0  0
    2.1447    0.4588    0.6638 N   0  0  0  0  0  0  0  0  0  0  0  0
    2.5813   -0.8100    0.5626 C   0  0  0  0  0  0  0  0  0  0  0  0
    3.7198   -0.7708   -0.2182 C   0  0  0  0  0  0  0  0  0  0  0  0
    4.5963   -1.9159   -0.6704 C   0  0  0  0  0  0  0  0  0  0  0  0
    3.8550   -2.9151   -1.5865 C   0  0  0  0  0  0  0  0  0  0  0  0
    3.0107   -3.9402   -0.8175 C   0  0  0  0  0  0  0  0  0  0  0  0
    3.8349   -4.6458    0.2624 C   0  0  0  0  0  0  0  0  0  0  0  0
    4.4526   -3.6385    1.2357 C   0  0  0  0  0  0  0  0  0  0  0  0
    5.3245   -2.6131    0.4993 C   0  0  0  0  0  0  0  0  0  0  0  0
    3.9575    0.5180   -0.5382 N   0  0  0  0  0  0  0  0  0  0  0  0
    2.9968    1.2405    0.0186 N   0  0  0  0  0  0  0  0  0  0  0  0
   -0.1973   -0.0019    1.3671 C   0  0  0  0  0  0  0  0  0  0  0  0
   -1.3683    0.8580    1.2959 N   0  0  0  0  0  0  0  0  0  0  0  0
   -2.7198    0.3790    1.4488 C   0  0  0  0  0  0  0  0  0  0  0  0
   -3.6421    1.1949    1.7217 O   0  0  0  0  0  0  0  0  0  0  0  0
   -3.0639   -1.0825    1.3040 C   0  0  0  0  0  0  0  0  0  0  0  0
   -4.1265   -1.3295    0.2203 C   0  0  0  0  0  0  0  0  0  0  0  0
   -3.6780   -0.9356   -1.1994 C   0  0  0  0  0  0  0  0  0  0  0  0
   -2.4577   -1.6932   -1.6665 C   0  0  0  0  0  0  0  0  0  0  0  0
   -1.2631   -1.0103   -1.9541 C   0  0  0  0  0  0  0  0  0  0  0  0
   -0.1306   -1.7132   -2.3762 C   0  0  0  0  0  0  0  0  0  0  0  0
   -0.1866   -3.0998   -2.5343 C   0  0  0  0  0  0  0  0  0  0  0  0
   -1.3743   -3.7860   -2.2684 C   0  0  0  0  0  0  0  0  0  0  0  0
   -2.5077   -3.0873   -1.8401 C   0  0  0  0  0  0  0  0  0  0  0  0
   -2.1425    4.3981    0.3532 N   0  0  0  0  0  0  0  0  0  0  0  0
   -1.8023    5.2106    1.5090 C   0  0  0  0  0  0  0  0  0  0  0  0
   -2.2271    6.6287    1.1524 C   0  0  0  0  0  0  0  0  0  0  0  0
   -3.1844    6.4933   -0.0287 C   0  0  0  0  0  0  0  0  0  0  0  0
   -2.8868    5.1362   -0.6520 C   0  0  0  0  0  0  0  0  0  0  0  0
   -1.2301    2.7042    2.2641 H   0  0  0  0  0  0  0  0  0  0  0  0
    0.6965    2.4359   -0.0794 H   0  0  0  0  0  0  0  0  0  0  0  0
    0.9830    3.1273    1.5699 H   0  0  0  0  0  0  0  0  0  0  0  0
    1.3262    1.0092    2.5341 H   0  0  0  0  0  0  0  0  0  0  0  0
    2.1092   -1.6639    1.0236 H   0  0  0  0  0  0  0  0  0  0  0  0
    5.3927   -1.4566   -1.2983 H   0  0  0  0  0  0  0  0  0  0  0  0
    4.6089   -3.4688   -2.1889 H   0  0  0  0  0  0  0  0  0  0  0  0
    3.2063   -2.3663   -2.3037 H   0  0  0  0  0  0  0  0  0  0  0  0
    2.6324   -4.7020   -1.5326 H   0  0  0  0  0  0  0  0  0  0  0  0
    2.1237   -3.4530   -0.3654 H   0  0  0  0  0  0  0  0  0  0  0  0
    3.1785   -5.3435    0.8256 H   0  0  0  0  0  0  0  0  0  0  0  0
    4.6408   -5.2452   -0.2156 H   0  0  0  0  0  0  0  0  0  0  0  0
    5.0841   -4.1871    1.9673 H   0  0  0  0  0  0  0  0  0  0  0  0
    3.6567   -3.1278    1.8139 H   0  0  0  0  0  0  0  0  0  0  0  0
    5.6951   -1.8553    1.2238 H   0  0  0  0  0  0  0  0  0  0  0  0
    6.2171   -3.1413    0.0963 H   0  0  0  0  0  0  0  0  0  0  0  0
   -0.2505   -0.6563    2.2645 H   0  0  0  0  0  0  0  0  0  0  0  0
   -0.1455   -0.6263    0.4538 H   0  0  0  0  0  0  0  0  0  0  0  0
   -3.4624   -1.4401    2.2773 H   0  0  0  0  0  0  0  0  0  0  0  0
   -2.1699   -1.6982    1.0813 H   0  0  0  0  0  0  0  0  0  0  0  0
   -4.4038   -2.4055    0.2338 H   0  0  0  0  0  0  0  0  0  0  0  0
   -5.0475   -0.7605    0.4738 H   0  0  0  0  0  0  0  0  0  0  0  0
   -4.5115   -1.1452   -1.9039 H   0  0  0  0  0  0  0  0  0  0  0  0
   -3.5020    0.1606   -1.2375 H   0  0  0  0  0  0  0  0  0  0  0  0
   -1.2009    0.0635   -1.8387 H   0  0  0  0  0  0  0  0  0  0  0  0
    0.7901   -1.1821   -2.5809 H   0  0  0  0  0  0  0  0  0  0  0  0
    0.6883   -3.6416   -2.8684 H   0  0  0  0  0  0  0  0  0  0  0  0
   -1.4177   -4.8598   -2.3964 H   0  0  0  0  0  0  0  0  0  0  0  0
   -3.4224   -3.6323   -1.6446 H   0  0  0  0  0  0  0  0  0  0  0  0
   -2.3652    4.8507    2.3973 H   0  0  0  0  0  0  0  0  0  0  0  0
   -0.7091    5.1714    1.7061 H   0  0  0  0  0  0  0  0  0  0  0  0
   -2.7156    7.1345    2.0134 H   0  0  0  0  0  0  0  0  0  0  0  0
   -1.3363    7.2176    0.8406 H   0  0  0  0  0  0  0  0  0  0  0  0
   -3.0414    7.3164   -0.7621 H   0  0  0  0  0  0  0  0  0  0  0  0
   -4.2333    6.5117    0.3412 H   0  0  0  0  0  0  0  0  0  0  0  0
   -2.2637    5.2545   -1.5650 H   0  0  0  0  0  0  0  0  0  0  0  0
   -3.8309    4.6057   -0.9034 H   0  0  0  0  0  0  0  0  0  0  0  0
  1  2  2  0
  2  3  1  0
  3  4  1  0
  4  5  1  0
  5  6  1  0
  6  7  1  0
  7  8  2  0
  8  9  1  0
  9 10  1  0
 10 11  1  0
 11 12  1  0
 12 13  1  0
 13 14  1  0
  8 15  1  0
 15 16  2  0
  5 17  1  0
 17 18  1  0
 18 19  1  0
 19 20  2  0
 19 21  1  0
 21 22  1  0
 22 23  1  0
 23 24  1  0
 24 25  2  0
 25 26  1  0
 26 27  2  0
 27 28  1  0
 28 29  2  0
  2 30  1  0
 30 31  1  0
 31 32  1  0
 32 33  1  0
 33 34  1  0
 18  3  1  0
 29 24  1  0
 34 30  1  0
 16  6  1  0
 14  9  1  0
  3 35  1  1
  4 36  1  0
  4 37  1  0
  5 38  1  1
  7 39  1  0
  9 40  1  0
 10 41  1  0
 10 42  1  0
 11 43  1  0
 11 44  1  0
 12 45  1  0
 12 46  1  0
 13 47  1  0
 13 48  1  0
 14 49  1  0
 14 50  1  0
 17 51  1  0
 17 52  1  0
 21 53  1  0
 21 54  1  0
 22 55  1  0
 22 56  1  0
 23 57  1  0
 23 58  1  0
 25 59  1  0
 26 60  1  0
 27 61  1  0
 28 62  1  0
 29 63  1  0
 31 64  1  0
 31 65  1  0
 32 66  1  0
 32 67  1  0
 33 68  1  0
 33 69  1  0
 34 70  1  0
 34 71  1  0
M  END
$$$$
