
     RDKit          3D

 59 60  0  0  0  0  0  0  0  0999 V2000
    5.9357    5.7661   -2.7693 C   0  0  0  0  0  0  0  0  0  0  0  0
    6.4932    4.4142   -3.1992 C   0  0  0  0  0  0  0  0  0  0  0  0
    5.6237    3.3591   -2.7931 O   0  0  0  0  0  0  0  0  0  0  0  0
    5.5333    2.8958   -1.4741 C   0  0  0  0  0  0  0  0  0  0  0  0
    6.2839    3.3776   -0.5810 O   0  0  0  0  0  0  0  0  0  0  0  0
    4.5607    1.8344   -1.1324 C   0  0  0  0  0  0  0  0  0  0  0  0
    3.7187    1.2986   -2.1214 C   0  0  0  0  0  0  0  0  0  0  0  0
    2.7981    0.2958   -1.8030 C   0  0  0  0  0  0  0  0  0  0  0  0
    2.7112   -0.1993   -0.4906 C   0  0  0  0  0  0  0  0  0  0  0  0
    1.7547   -1.2107   -0.1320 N   0  0  0  0  0  0  0  0  0  0  0  0
    1.3241   -2.2594   -1.0155 C   0  0  0  0  0  0  0  0  0  0  0  0
    1.9930   -2.5414   -2.0461 O   0  0  0  0  0  0  0  0  0  0  0  0
    0.1101   -3.0847   -0.6816 C   0  0  0  0  0  0  0  0  0  0  0  0
    0.3719   -4.0408    0.4985 C   0  0  0  0  0  0  0  0  0  0  0  0
   -0.6219   -3.5789    1.5148 C   0  0  0  0  0  0  0  0  0  0  0  0
   -1.3429   -2.5967    1.1017 N   0  0  0  0  0  0  0  0  0  0  0  0
   -0.9738   -2.2416   -0.1948 N   0  0  0  0  0  0  0  0  0  0  0  0
   -1.6546   -1.2360   -0.9601 C   0  0  0  0  0  0  0  0  0  0  0  0
   -1.3271   -1.0291   -2.1597 O   0  0  0  0  0  0  0  0  0  0  0  0
   -2.7820   -0.4481   -0.3577 C   0  0  0  0  0  0  0  0  0  0  0  0
   -4.1021   -1.2429   -0.4040 C   0  0  2  0  0  0  0  0  0  0  0  0
   -4.4832   -1.4864   -1.7985 N   0  0  0  0  0  0  0  0  0  0  0  0
   -5.2372   -0.5058    0.3440 C   0  0  0  0  0  0  0  0  0  0  0  0
   -4.9959   -0.4564    1.8339 C   0  0  0  0  0  0  0  0  0  0  0  0
   -4.5144    0.7208    2.4327 C   0  0  0  0  0  0  0  0  0  0  0  0
   -4.2607    0.7621    3.8071 C   0  0  0  0  0  0  0  0  0  0  0  0
   -3.7940    1.9021    4.3739 F   0  0  0  0  0  0  0  0  0  0  0  0
   -4.4842   -0.3712    4.5946 C   0  0  0  0  0  0  0  0  0  0  0  0
   -4.2371   -0.3328    5.9274 F   0  0  0  0  0  0  0  0  0  0  0  0
   -4.9613   -1.5465    4.0080 C   0  0  0  0  0  0  0  0  0  0  0  0
   -5.2166   -1.5937    2.6337 C   0  0  0  0  0  0  0  0  0  0  0  0
   -5.6773   -2.7460    2.0841 F   0  0  0  0  0  0  0  0  0  0  0  0
    3.5340    0.3513    0.5014 C   0  0  0  0  0  0  0  0  0  0  0  0
    4.4559    1.3530    0.1845 C   0  0  0  0  0  0  0  0  0  0  0  0
    0.6878    0.0000    0.0000 Cl  0  0  0  0  0  0  0  0  0  0  0  0
    6.5954    6.5776   -3.1424 H   0  0  0  0  0  0  0  0  0  0  0  0
    4.9179    5.9072   -3.1906 H   0  0  0  0  0  0  0  0  0  0  0  0
    5.8838    5.8299   -1.6625 H   0  0  0  0  0  0  0  0  0  0  0  0
    7.5104    4.2631   -2.7766 H   0  0  0  0  0  0  0  0  0  0  0  0
    6.5747    4.3982   -4.3064 H   0  0  0  0  0  0  0  0  0  0  0  0
    3.7634    1.6595   -3.1413 H   0  0  0  0  0  0  0  0  0  0  0  0
    2.1386   -0.0712   -2.5780 H   0  0  0  0  0  0  0  0  0  0  0  0
    1.3957   -1.2202    0.8496 H   0  0  0  0  0  0  0  0  0  0  0  0
   -0.2336   -3.6559   -1.5728 H   0  0  0  0  0  0  0  0  0  0  0  0
    0.1590   -5.0930    0.2129 H   0  0  0  0  0  0  0  0  0  0  0  0
    1.4018   -3.9569    0.9090 H   0  0  0  0  0  0  0  0  0  0  0  0
   -0.7435   -4.0164    2.4964 H   0  0  0  0  0  0  0  0  0  0  0  0
   -2.8999    0.5147   -0.9019 H   0  0  0  0  0  0  0  0  0  0  0  0
   -2.5127   -0.2030    0.6908 H   0  0  0  0  0  0  0  0  0  0  0  0
   -3.9394   -2.2291    0.0860 H   0  0  0  0  0  0  0  0  0  0  0  0
   -4.7714   -0.5838   -2.2427 H   0  0  0  0  0  0  0  0  0  0  0  0
   -5.3126   -2.1236   -1.8150 H   0  0  0  0  0  0  0  0  0  0  0  0
   -5.3529    0.5219   -0.0660 H   0  0  0  0  0  0  0  0  0  0  0  0
   -6.2015   -1.0282    0.1605 H   0  0  0  0  0  0  0  0  0  0  0  0
   -4.3281    1.6034    1.8332 H   0  0  0  0  0  0  0  0  0  0  0  0
   -5.1324   -2.4234    4.6192 H   0  0  0  0  0  0  0  0  0  0  0  0
    3.4669   -0.0043    1.5220 H   0  0  0  0  0  0  0  0  0  0  0  0
    5.0843    1.7512    0.9714 H   0  0  0  0  0  0  0  0  0  0  0  0
   -0.6878    0.0000    0.0000 H   0  0  0  0  0  0  0  0  0  0  0  0
  1  2  1  0
  2  3  1  0
  3  4  1  0
  4  5  2  0
  4  6  1  0
  6  7  2  0
  7  8  1  0
  8  9  2  0
  9 10  1  0
 10 11  1  0
 11 12  2  0
 11 13  1  0
 13 14  1  0
 14 15  1  0
 15 16  2  0
 16 17  1  0
 17 18  1  0
 18 19  2  0
 18 20  1  0
 20 21  1  0
 21 22  1  0
 21 23  1  0
 23 24  1  0
 24 25  2  0
 25 26  1  0
 26 27  1  0
 26 28  2  0
 28 29  1  0
 28 30  1  0
 30 31  2  0
 31 32  1  0
  9 33  1  0
 33 34  2  0
 34  6  1  0
 17 13  1  0
 31 24  1  0
  1 36  1  0
  1 37  1  0
  1 38  1  0
  2 39  1  0
  2 40  1  0
  7 41  1  0
  8 42  1  0
 10 43  1  0
 13 44  1  0
 14 45  1  0
 14 46  1  0
 15 47  1  0
 20 48  1  0
 20 49  1  0
 21 50  1  1
 22 51  1  0
 22 52  1  0
 23 53  1  0
 23 54  1  0
 25 55  1  0
 30 56  1  0
 33 57  1  0
 34 58  1  0
 35 59  1  0
M  END
$$$$
