
     RDKit          3D

 58 60  0  0  0  0  0  0  0  0999 V2000
   -1.2744   -0.3375    1.3327 C   0  0  0  0  0  0  0  0  0  0  0  0
   -1.3763   -0.8931   -0.1083 C   0  0  0  0  0  0  0  0  0  0  0  0
   -0.8505   -2.3474   -0.0908 C   0  0  0  0  0  0  0  0  0  0  0  0
   -0.5298   -0.0306   -1.0966 C   0  0  0  0  0  0  0  0  0  0  0  0
    0.9476   -0.0533   -0.8096 C   0  0  0  0  0  0  0  0  0  0  0  0
    1.4295    0.7486    0.0363 O   0  0  0  0  0  0  0  0  0  0  0  0
    1.7997   -0.9905   -1.4797 N   0  0  0  0  0  0  0  0  0  0  0  0
    3.2130   -1.1107   -1.1378 C   0  0  1  0  0  0  0  0  0  0  0  0
    4.1106   -1.3908   -2.3391 C   0  0  0  0  0  0  0  0  0  0  0  0
    4.0667    0.0065   -1.7264 C   0  0  2  0  0  0  0  0  0  0  0  0
    5.2792    0.4437   -0.9235 C   0  0  0  0  0  0  0  0  0  0  0  0
    6.0294   -0.4259   -0.1037 C   0  0  0  0  0  0  0  0  0  0  0  0
    7.1327    0.0479    0.6119 C   0  0  0  0  0  0  0  0  0  0  0  0
    7.5241    1.3927    0.5134 C   0  0  0  0  0  0  0  0  0  0  0  0
    8.6838    1.9127    1.3251 C   0  0  0  0  0  0  0  0  0  0  0  0
    9.6347    0.9236    1.5083 F   0  0  0  0  0  0  0  0  0  0  0  0
    8.2240    2.3298    2.5602 F   0  0  0  0  0  0  0  0  0  0  0  0
    9.2889    2.9806    0.6849 F   0  0  0  0  0  0  0  0  0  0  0  0
    6.7621    2.2654   -0.2794 C   0  0  0  0  0  0  0  0  0  0  0  0
    5.6590    1.7929   -0.9954 C   0  0  0  0  0  0  0  0  0  0  0  0
   -2.7985   -0.9514   -0.5350 N   0  0  0  0  0  0  0  0  0  0  0  0
   -3.4702    0.3487   -0.6916 C   0  0  0  0  0  0  0  0  0  0  0  0
   -4.9493    0.1337   -0.8313 C   0  0  0  0  0  0  0  0  0  0  0  0
   -5.4558    0.1187   -1.9860 O   0  0  0  0  0  0  0  0  0  0  0  0
   -5.7870   -0.0848    0.3212 N   0  0  0  0  0  0  0  0  0  0  0  0
   -5.2694   -0.3710    1.6497 C   0  0  0  0  0  0  0  0  0  0  0  0
   -6.4592   -0.8660    2.4607 C   0  0  0  0  0  0  0  0  0  0  0  0
   -7.7029   -0.4337    1.6895 C   0  0  0  0  0  0  0  0  0  0  0  0
   -7.2381   -0.1924    0.2516 C   0  0  1  0  0  0  0  0  0  0  0  0
   -7.8291    1.0405   -0.2964 C   0  0  0  0  0  0  0  0  0  0  0  0
   -8.2929    2.0092   -0.7274 N   0  0  0  0  0  0  0  0  0  0  0  0
   -1.4334    0.7600    1.3611 H   0  0  0  0  0  0  0  0  0  0  0  0
   -0.2687   -0.5295    1.7642 H   0  0  0  0  0  0  0  0  0  0  0  0
   -2.0259   -0.8252    1.9893 H   0  0  0  0  0  0  0  0  0  0  0  0
    0.1785   -2.4079    0.3235 H   0  0  0  0  0  0  0  0  0  0  0  0
   -1.5086   -2.9852    0.5383 H   0  0  0  0  0  0  0  0  0  0  0  0
   -0.8387   -2.7707   -1.1182 H   0  0  0  0  0  0  0  0  0  0  0  0
   -0.8604    1.0293   -1.0587 H   0  0  0  0  0  0  0  0  0  0  0  0
   -0.7007   -0.3829   -2.1371 H   0  0  0  0  0  0  0  0  0  0  0  0
    1.3808   -1.6794   -2.1446 H   0  0  0  0  0  0  0  0  0  0  0  0
    3.4828   -1.5498   -0.1551 H   0  0  0  0  0  0  0  0  0  0  0  0
    3.5835   -1.4720   -3.3138 H   0  0  0  0  0  0  0  0  0  0  0  0
    5.0056   -2.0056   -2.1132 H   0  0  0  0  0  0  0  0  0  0  0  0
    3.5235    0.7570   -2.3423 H   0  0  0  0  0  0  0  0  0  0  0  0
    5.7713   -1.4706   -0.0040 H   0  0  0  0  0  0  0  0  0  0  0  0
    7.6797   -0.6390    1.2455 H   0  0  0  0  0  0  0  0  0  0  0  0
    7.0176    3.3157   -0.3444 H   0  0  0  0  0  0  0  0  0  0  0  0
    5.0945    2.4879   -1.6052 H   0  0  0  0  0  0  0  0  0  0  0  0
   -2.8589   -1.4475   -1.4568 H   0  0  0  0  0  0  0  0  0  0  0  0
   -3.2972    1.0090    0.1801 H   0  0  0  0  0  0  0  0  0  0  0  0
   -3.0973    0.8710   -1.6001 H   0  0  0  0  0  0  0  0  0  0  0  0
   -4.8500    0.5565    2.0957 H   0  0  0  0  0  0  0  0  0  0  0  0
   -4.4884   -1.1596    1.6046 H   0  0  0  0  0  0  0  0  0  0  0  0
   -6.4514   -0.4430    3.4889 H   0  0  0  0  0  0  0  0  0  0  0  0
   -6.4313   -1.9763    2.5243 H   0  0  0  0  0  0  0  0  0  0  0  0
   -8.1038    0.4966    2.1529 H   0  0  0  0  0  0  0  0  0  0  0  0
   -8.4897   -1.2184    1.7294 H   0  0  0  0  0  0  0  0  0  0  0  0
   -7.5154   -1.0557   -0.3918 H   0  0  0  0  0  0  0  0  0  0  0  0
  1  2  1  0
  2  3  1  0
  2  4  1  0
  4  5  1  0
  5  6  2  0
  5  7  1  0
  7  8  1  0
  8  9  1  0
  9 10  1  0
 10 11  1  0
 11 12  2  0
 12 13  1  0
 13 14  2  0
 14 15  1  0
 15 16  1  0
 15 17  1  0
 15 18  1  0
 14 19  1  0
 19 20  2  0
  2 21  1  0
 21 22  1  0
 22 23  1  0
 23 24  2  0
 23 25  1  0
 25 26  1  0
 26 27  1  0
 27 28  1  0
 28 29  1  0
 29 30  1  0
 30 31  3  0
 10  8  1  0
 20 11  1  0
 29 25  1  0
  1 32  1  0
  1 33  1  0
  1 34  1  0
  3 35  1  0
  3 36  1  0
  3 37  1  0
  4 38  1  0
  4 39  1  0
  7 40  1  0
  8 41  1  1
  9 42  1  0
  9 43  1  0
 10 44  1  6
 12 45  1  0
 13 46  1  0
 19 47  1  0
 20 48  1  0
 21 49  1  0
 22 50  1  0
 22 51  1  0
 26 52  1  0
 26 53  1  0
 27 54  1  0
 27 55  1  0
 28 56  1  0
 28 57  1  0
 29 58  1  6
M  END
$$$$
