
     RDKit          3D

 60 62  0  0  0  0  0  0  0  0999 V2000
   -4.7225   -1.4639   -0.0134 C   0  0  0  0  0  0  0  0  0  0  0  0
   -3.3735   -2.1351   -0.0674 C   0  0  0  0  0  0  0  0  0  0  0  0
   -3.2146   -3.3499    0.6239 C   0  0  0  0  0  0  0  0  0  0  0  0
   -1.9850   -4.0089    0.6367 C   0  0  0  0  0  0  0  0  0  0  0  0
   -0.8939   -3.4629   -0.0343 C   0  0  0  0  0  0  0  0  0  0  0  0
   -1.0259   -2.2513   -0.7118 C   0  0  0  0  0  0  0  0  0  0  0  0
   -2.2521   -1.5618   -0.7301 C   0  0  0  0  0  0  0  0  0  0  0  0
   -2.3061   -0.2186   -1.4344 C   0  0  0  0  0  0  0  0  0  0  0  0
   -2.3148    0.9609   -0.4333 C   0  0  2  0  0  0  0  0  0  0  0  0
   -2.3402    2.3192   -1.0850 C   0  0  0  0  0  0  0  0  0  0  0  0
   -2.3144    2.4267   -2.3412 O   0  0  0  0  0  0  0  0  0  0  0  0
   -2.3586    3.5083   -0.2795 N   0  0  0  0  0  0  0  0  0  0  0  0
   -2.6518    3.5043    1.1637 C   0  0  2  0  0  0  0  0  0  0  0  0
   -2.9078    4.9383    1.6436 C   0  0  0  0  0  0  0  0  0  0  0  0
   -1.4929    2.8744    1.9737 C   0  0  0  0  0  0  0  0  0  0  0  0
   -1.4639    1.3408    1.8888 C   0  0  0  0  0  0  0  0  0  0  0  0
   -1.1838    0.9080    0.5129 N   0  0  0  0  0  0  0  0  0  0  0  0
    0.1867    0.8801    0.0396 C   0  0  0  0  0  0  0  0  0  0  0  0
    0.4424    1.2119   -1.1502 O   0  0  0  0  0  0  0  0  0  0  0  0
    1.3207    0.5266    0.9788 C   0  0  0  0  0  0  0  0  0  0  0  0
    2.6792    0.2165    0.3040 C   0  0  2  0  0  0  0  0  0  0  0  0
    3.1538    1.3717   -0.4647 N   0  0  0  0  0  0  0  0  0  0  0  0
    2.5970   -1.0423   -0.5869 C   0  0  0  0  0  0  0  0  0  0  0  0
    3.9659   -1.5466   -0.9742 C   0  0  0  0  0  0  0  0  0  0  0  0
    4.7080   -2.3174   -0.0630 C   0  0  0  0  0  0  0  0  0  0  0  0
    5.9856   -2.7751   -0.3996 C   0  0  0  0  0  0  0  0  0  0  0  0
    6.6916   -3.5200    0.4867 F   0  0  0  0  0  0  0  0  0  0  0  0
    6.5348   -2.4629   -1.6466 C   0  0  0  0  0  0  0  0  0  0  0  0
    7.7742   -2.9051   -1.9740 F   0  0  0  0  0  0  0  0  0  0  0  0
    5.8075   -1.6911   -2.5568 C   0  0  0  0  0  0  0  0  0  0  0  0
    4.5288   -1.2305   -2.2258 C   0  0  0  0  0  0  0  0  0  0  0  0
    3.8461   -0.4741   -3.1224 F   0  0  0  0  0  0  0  0  0  0  0  0
   -4.7566   -0.7638    0.8466 H   0  0  0  0  0  0  0  0  0  0  0  0
   -4.9533   -0.9190   -0.9491 H   0  0  0  0  0  0  0  0  0  0  0  0
   -5.5291   -2.2158    0.1224 H   0  0  0  0  0  0  0  0  0  0  0  0
   -4.0478   -3.7910    1.1575 H   0  0  0  0  0  0  0  0  0  0  0  0
   -1.8786   -4.9455    1.1687 H   0  0  0  0  0  0  0  0  0  0  0  0
    0.0589   -3.9765   -0.0261 H   0  0  0  0  0  0  0  0  0  0  0  0
   -0.1649   -1.8479   -1.2251 H   0  0  0  0  0  0  0  0  0  0  0  0
   -1.4490   -0.1184   -2.1337 H   0  0  0  0  0  0  0  0  0  0  0  0
   -3.2058   -0.1692   -2.0816 H   0  0  0  0  0  0  0  0  0  0  0  0
   -3.2700    0.8815    0.1238 H   0  0  0  0  0  0  0  0  0  0  0  0
   -2.2523    4.4223   -0.7768 H   0  0  0  0  0  0  0  0  0  0  0  0
   -3.5886    2.9324    1.3451 H   0  0  0  0  0  0  0  0  0  0  0  0
   -1.9961    5.5605    1.5148 H   0  0  0  0  0  0  0  0  0  0  0  0
   -3.7371    5.3910    1.0592 H   0  0  0  0  0  0  0  0  0  0  0  0
   -3.1995    4.9412    2.7156 H   0  0  0  0  0  0  0  0  0  0  0  0
   -1.6041    3.1405    3.0479 H   0  0  0  0  0  0  0  0  0  0  0  0
   -0.5206    3.2896    1.6288 H   0  0  0  0  0  0  0  0  0  0  0  0
   -2.4341    0.9235    2.2371 H   0  0  0  0  0  0  0  0  0  0  0  0
   -0.7044    0.9468    2.5941 H   0  0  0  0  0  0  0  0  0  0  0  0
    1.4664    1.3738    1.6830 H   0  0  0  0  0  0  0  0  0  0  0  0
    1.0179   -0.3558    1.5833 H   0  0  0  0  0  0  0  0  0  0  0  0
    3.4033    0.0143    1.1271 H   0  0  0  0  0  0  0  0  0  0  0  0
    3.1806    2.2040    0.1684 H   0  0  0  0  0  0  0  0  0  0  0  0
    4.1469    1.2012   -0.7433 H   0  0  0  0  0  0  0  0  0  0  0  0
    1.9974   -0.8292   -1.4964 H   0  0  0  0  0  0  0  0  0  0  0  0
    2.0687   -1.8521   -0.0372 H   0  0  0  0  0  0  0  0  0  0  0  0
    4.2953   -2.5615    0.9083 H   0  0  0  0  0  0  0  0  0  0  0  0
    6.2364   -1.4469   -3.5202 H   0  0  0  0  0  0  0  0  0  0  0  0
  1  2  1  0
  2  3  2  0
  3  4  1  0
  4  5  2  0
  5  6  1  0
  6  7  2  0
  7  8  1  0
  8  9  1  0
  9 10  1  0
 10 11  2  0
 10 12  1  0
 12 13  1  0
 13 14  1  0
 13 15  1  0
 15 16  1  0
 16 17  1  0
 17 18  1  0
 18 19  2  0
 18 20  1  0
 20 21  1  0
 21 22  1  0
 21 23  1  0
 23 24  1  0
 24 25  2  0
 25 26  1  0
 26 27  1  0
 26 28  2  0
 28 29  1  0
 28 30  1  0
 30 31  2  0
 31 32  1  0
  7  2  1  0
 17  9  1  0
 31 24  1  0
  1 33  1  0
  1 34  1  0
  1 35  1  0
  3 36  1  0
  4 37  1  0
  5 38  1  0
  6 39  1  0
  8 40  1  0
  8 41  1  0
  9 42  1  1
 12 43  1  0
 13 44  1  6
 14 45  1  0
 14 46  1  0
 14 47  1  0
 15 48  1  0
 15 49  1  0
 16 50  1  0
 16 51  1  0
 20 52  1  0
 20 53  1  0
 21 54  1  1
 22 55  1  0
 22 56  1  0
 23 57  1  0
 23 58  1  0
 25 59  1  0
 30 60  1  0
M  END
$$$$
