
     RDKit          3D

 34 34  0  0  0  0  0  0  0  0999 V2000
    3.5089    0.2890   -0.5902 C   0  0  0  0  0  0  0  0  0  0  0  0
    2.5583   -0.4907    0.3346 C   0  0  0  0  0  0  0  0  0  0  0  0
    2.1811    0.3731    1.5471 C   0  0  0  0  0  0  0  0  0  0  0  0
    1.2941   -1.0445   -0.3836 C   0  0  2  0  0  0  0  0  0  0  0  0
    1.6601   -2.1045   -1.3296 N   0  0  0  0  0  0  0  0  0  0  0  0
    0.4746    0.0401   -1.0685 C   0  0  0  0  0  0  0  0  0  0  0  0
    0.8676    0.4893   -2.1801 O   0  0  0  0  0  0  0  0  0  0  0  0
   -0.7161    0.5985   -0.4726 N   0  0  0  0  0  0  0  0  0  0  0  0
   -1.3218    1.8222   -0.9764 C   0  0  0  0  0  0  0  0  0  0  0  0
   -2.5775    2.0429   -0.1434 C   0  0  0  0  0  0  0  0  0  0  0  0
   -2.4167    1.1551    1.0862 C   0  0  0  0  0  0  0  0  0  0  0  0
   -1.4315    0.0577    0.6780 C   0  0  1  0  0  0  0  0  0  0  0  0
   -2.1929   -1.2967    0.2717 B   0  0  0  0  0  0  0  0  0  0  0  0
   -1.9594   -2.5210    1.0328 O   0  0  0  0  0  0  0  0  0  0  0  0
   -3.1019   -1.3149   -0.8724 O   0  0  0  0  0  0  0  0  0  0  0  0
    4.4309    0.5649   -0.0352 H   0  0  0  0  0  0  0  0  0  0  0  0
    3.8178   -0.3290   -1.4574 H   0  0  0  0  0  0  0  0  0  0  0  0
    3.0355    1.2246   -0.9548 H   0  0  0  0  0  0  0  0  0  0  0  0
    3.1264   -1.3641    0.7264 H   0  0  0  0  0  0  0  0  0  0  0  0
    1.5992    1.2655    1.2322 H   0  0  0  0  0  0  0  0  0  0  0  0
    1.5782   -0.2187    2.2677 H   0  0  0  0  0  0  0  0  0  0  0  0
    3.0970    0.7152    2.0748 H   0  0  0  0  0  0  0  0  0  0  0  0
    0.6770   -1.5330    0.3971 H   0  0  0  0  0  0  0  0  0  0  0  0
    2.1285   -1.6986   -2.1710 H   0  0  0  0  0  0  0  0  0  0  0  0
    0.7828   -2.5665   -1.6641 H   0  0  0  0  0  0  0  0  0  0  0  0
   -0.6142    2.6692   -0.8426 H   0  0  0  0  0  0  0  0  0  0  0  0
   -1.5820    1.7131   -2.0517 H   0  0  0  0  0  0  0  0  0  0  0  0
   -2.6949    3.1113    0.1405 H   0  0  0  0  0  0  0  0  0  0  0  0
   -3.4710    1.7171   -0.7202 H   0  0  0  0  0  0  0  0  0  0  0  0
   -3.3984    0.7675    1.4401 H   0  0  0  0  0  0  0  0  0  0  0  0
   -1.9681    1.7585    1.9064 H   0  0  0  0  0  0  0  0  0  0  0  0
   -0.7381   -0.1353    1.5223 H   0  0  0  0  0  0  0  0  0  0  0  0
   -2.6446   -2.5052    1.7478 H   0  0  0  0  0  0  0  0  0  0  0  0
   -3.9890   -1.0924   -0.4921 H   0  0  0  0  0  0  0  0  0  0  0  0
  1  2  1  0
  2  3  1  0
  2  4  1  0
  4  5  1  0
  4  6  1  0
  6  7  2  0
  6  8  1  0
  8  9  1  0
  9 10  1  0
 10 11  1  0
 11 12  1  0
 12 13  1  0
 13 14  1  0
 13 15  1  0
 12  8  1  0
  1 16  1  0
  1 17  1  0
  1 18  1  0
  2 19  1  0
  3 20  1  0
  3 21  1  0
  3 22  1  0
  4 23  1  1
  5 24  1  0
  5 25  1  0
  9 26  1  0
  9 27  1  0
 10 28  1  0
 10 29  1  0
 11 30  1  0
 11 31  1  0
 12 32  1  1
 14 33  1  0
 15 34  1  0
M  END
$$$$
