
     RDKit          3D

 58 60  0  0  0  0  0  0  0  0999 V2000
   -1.9201    0.2652   -1.1251 C   0  0  0  0  0  0  0  0  0  0  0  0
   -1.7802   -0.3696    0.1961 N   0  0  0  0  0  0  0  0  0  0  0  0
   -0.4192   -0.8749    0.5163 C   0  0  1  0  0  0  0  0  0  0  0  0
    0.2521   -1.7164   -0.6140 C   0  0  0  0  0  0  0  0  0  0  0  0
    1.3429   -0.9429   -1.3706 C   0  0  0  0  0  0  0  0  0  0  0  0
    2.4586   -0.3920   -0.4344 C   0  0  2  0  0  0  0  0  0  0  0  0
    3.7366   -1.2828   -0.4838 C   0  0  2  0  0  0  0  0  0  0  0  0
    3.4447   -2.6431   -0.0170 N   0  0  0  0  0  0  0  0  0  0  0  0
    4.9412   -0.6847    0.2865 C   0  0  0  0  0  0  0  0  0  0  0  0
    5.4498    0.5899   -0.3452 C   0  0  0  0  0  0  0  0  0  0  0  0
    5.1568    1.8357    0.2371 C   0  0  0  0  0  0  0  0  0  0  0  0
    5.6064    3.0179   -0.3589 C   0  0  0  0  0  0  0  0  0  0  0  0
    5.3176    4.2148    0.2088 F   0  0  0  0  0  0  0  0  0  0  0  0
    6.3533    2.9672   -1.5384 C   0  0  0  0  0  0  0  0  0  0  0  0
    6.6542    1.7346   -2.1226 C   0  0  0  0  0  0  0  0  0  0  0  0
    6.2069    0.5482   -1.5319 C   0  0  0  0  0  0  0  0  0  0  0  0
    6.5153   -0.6384   -2.1141 F   0  0  0  0  0  0  0  0  0  0  0  0
    1.9492   -0.1270    1.0095 C   0  0  0  0  0  0  0  0  0  0  0  0
    0.4751    0.2841    1.0133 C   0  0  0  0  0  0  0  0  0  0  0  0
   -3.0045   -1.6012    0.4097 S   0  0  0  0  0  0  0  0  0  0  0  0
   -2.9264   -2.1675    1.8004 O   0  0  0  0  0  0  0  0  0  0  0  0
   -2.8048   -2.7206   -0.5743 O   0  0  0  0  0  0  0  0  0  0  0  0
   -4.6029   -0.8932    0.1874 C   0  0  0  0  0  0  0  0  0  0  0  0
   -5.3254   -1.1212   -0.9903 C   0  0  0  0  0  0  0  0  0  0  0  0
   -6.5840   -0.5427   -1.1622 C   0  0  0  0  0  0  0  0  0  0  0  0
   -7.1254    0.2744   -0.1662 C   0  0  0  0  0  0  0  0  0  0  0  0
   -6.4052    0.5293    1.0156 C   0  0  0  0  0  0  0  0  0  0  0  0
   -6.9629    1.3941    2.0843 C   0  0  0  0  0  0  0  0  0  0  0  0
   -7.9670    2.3739    1.8059 N   0  0  0  0  0  0  0  0  0  0  0  0
   -6.5373    1.2785    3.2654 O   0  0  0  0  0  0  0  0  0  0  0  0
   -5.1424   -0.0688    1.1841 C   0  0  0  0  0  0  0  0  0  0  0  0
   -1.1151    1.0041   -1.3041 H   0  0  0  0  0  0  0  0  0  0  0  0
   -1.9245   -0.4825   -1.9453 H   0  0  0  0  0  0  0  0  0  0  0  0
   -2.8760    0.8276   -1.1650 H   0  0  0  0  0  0  0  0  0  0  0  0
   -0.5009   -1.5573    1.3924 H   0  0  0  0  0  0  0  0  0  0  0  0
    0.7239   -2.6141   -0.1583 H   0  0  0  0  0  0  0  0  0  0  0  0
   -0.4880   -2.1070   -1.3386 H   0  0  0  0  0  0  0  0  0  0  0  0
    0.8680   -0.0948   -1.9075 H   0  0  0  0  0  0  0  0  0  0  0  0
    1.7704   -1.6000   -2.1590 H   0  0  0  0  0  0  0  0  0  0  0  0
    2.7424    0.5975   -0.8579 H   0  0  0  0  0  0  0  0  0  0  0  0
    4.0377   -1.3564   -1.5538 H   0  0  0  0  0  0  0  0  0  0  0  0
    3.4735   -2.6782    1.0274 H   0  0  0  0  0  0  0  0  0  0  0  0
    4.2020   -3.2797   -0.3573 H   0  0  0  0  0  0  0  0  0  0  0  0
    5.7707   -1.4253    0.2932 H   0  0  0  0  0  0  0  0  0  0  0  0
    4.6744   -0.5154    1.3518 H   0  0  0  0  0  0  0  0  0  0  0  0
    4.5837    1.8933    1.1530 H   0  0  0  0  0  0  0  0  0  0  0  0
    6.7013    3.8826   -1.9995 H   0  0  0  0  0  0  0  0  0  0  0  0
    7.2355    1.6990   -3.0350 H   0  0  0  0  0  0  0  0  0  0  0  0
    2.0601   -1.0264    1.6499 H   0  0  0  0  0  0  0  0  0  0  0  0
    2.5453    0.6858    1.4741 H   0  0  0  0  0  0  0  0  0  0  0  0
    0.3570    1.1893    0.3821 H   0  0  0  0  0  0  0  0  0  0  0  0
    0.1735    0.5638    2.0465 H   0  0  0  0  0  0  0  0  0  0  0  0
   -4.9174   -1.7442   -1.7755 H   0  0  0  0  0  0  0  0  0  0  0  0
   -7.1441   -0.7309   -2.0691 H   0  0  0  0  0  0  0  0  0  0  0  0
   -8.1144    0.6842   -0.3186 H   0  0  0  0  0  0  0  0  0  0  0  0
   -8.2396    2.6204    0.8297 H   0  0  0  0  0  0  0  0  0  0  0  0
   -8.3835    2.9277    2.5870 H   0  0  0  0  0  0  0  0  0  0  0  0
   -4.5685    0.1161    2.0842 H   0  0  0  0  0  0  0  0  0  0  0  0
  1  2  1  0
  2  3  1  0
  3  4  1  0
  4  5  1  0
  5  6  1  0
  6  7  1  0
  7  8  1  0
  7  9  1  0
  9 10  1  0
 10 11  2  0
 11 12  1  0
 12 13  1  0
 12 14  2  0
 14 15  1  0
 15 16  2  0
 16 17  1  0
  6 18  1  0
 18 19  1  0
  2 20  1  0
 20 21  2  0
 20 22  2  0
 20 23  1  0
 23 24  2  0
 24 25  1  0
 25 26  2  0
 26 27  1  0
 27 28  1  0
 28 29  1  0
 28 30  2  0
 27 31  2  0
 19  3  1  0
 31 23  1  0
 16 10  1  0
  1 32  1  0
  1 33  1  0
  1 34  1  0
  3 35  1  1
  4 36  1  0
  4 37  1  0
  5 38  1  0
  5 39  1  0
  6 40  1  6
  7 41  1  6
  8 42  1  0
  8 43  1  0
  9 44  1  0
  9 45  1  0
 11 46  1  0
 14 47  1  0
 15 48  1  0
 18 49  1  0
 18 50  1  0
 19 51  1  0
 19 52  1  0
 24 53  1  0
 25 54  1  0
 26 55  1  0
 29 56  1  0
 29 57  1  0
 31 58  1  0
M  END
$$$$
