
     RDKit          3D

 27 28  0  0  0  0  0  0  0  0999 V2000
   -0.9387   -1.7103   -1.8588 N   0  0  0  0  0  0  0  0  0  0  0  0
   -1.2851   -1.6024   -0.4458 C   0  0  0  0  0  0  0  0  0  0  0  0
   -1.4961   -0.1542   -0.0743 C   0  0  0  0  0  0  0  0  0  0  0  0
   -2.7975    0.3762   -0.1113 C   0  0  0  0  0  0  0  0  0  0  0  0
   -3.0290    1.7134    0.2190 C   0  0  0  0  0  0  0  0  0  0  0  0
   -1.9649    2.5394    0.5816 C   0  0  0  0  0  0  0  0  0  0  0  0
   -0.6641    2.0336    0.6080 C   0  0  0  0  0  0  0  0  0  0  0  0
   -0.4156    0.6927    0.2750 C   0  0  0  0  0  0  0  0  0  0  0  0
    0.9782    0.2037    0.2965 C   0  0  0  0  0  0  0  0  0  0  0  0
    1.6747    0.0552   -0.9132 C   0  0  0  0  0  0  0  0  0  0  0  0
    2.9943   -0.4043   -0.9149 C   0  0  0  0  0  0  0  0  0  0  0  0
    3.6284   -0.7156    0.2900 C   0  0  0  0  0  0  0  0  0  0  0  0
    2.9444   -0.5681    1.4996 C   0  0  0  0  0  0  0  0  0  0  0  0
    1.6217   -0.1086    1.5111 C   0  0  0  0  0  0  0  0  0  0  0  0
    0.7906    0.0447    3.0551 Cl  0  0  0  0  0  0  0  0  0  0  0  0
   -1.7843   -1.4620   -2.4225 H   0  0  0  0  0  0  0  0  0  0  0  0
   -0.7307   -2.7150   -2.0601 H   0  0  0  0  0  0  0  0  0  0  0  0
   -0.4723   -2.0424    0.1716 H   0  0  0  0  0  0  0  0  0  0  0  0
   -2.2028   -2.1970   -0.2363 H   0  0  0  0  0  0  0  0  0  0  0  0
   -3.6363   -0.2481   -0.3939 H   0  0  0  0  0  0  0  0  0  0  0  0
   -4.0358    2.1100    0.1927 H   0  0  0  0  0  0  0  0  0  0  0  0
   -2.1476    3.5751    0.8375 H   0  0  0  0  0  0  0  0  0  0  0  0
    0.1536    2.6891    0.8828 H   0  0  0  0  0  0  0  0  0  0  0  0
    1.1954    0.2978   -1.8538 H   0  0  0  0  0  0  0  0  0  0  0  0
    3.5260   -0.5179   -1.8507 H   0  0  0  0  0  0  0  0  0  0  0  0
    4.6505   -1.0715    0.2867 H   0  0  0  0  0  0  0  0  0  0  0  0
    3.4431   -0.8137    2.4286 H   0  0  0  0  0  0  0  0  0  0  0  0
  1  2  1  0
  2  3  1  0
  3  4  2  0
  4  5  1  0
  5  6  2  0
  6  7  1  0
  7  8  2  0
  8  9  1  0
  9 10  2  0
 10 11  1  0
 11 12  2  0
 12 13  1  0
 13 14  2  0
 14 15  1  0
  8  3  1  0
 14  9  1  0
  1 16  1  0
  1 17  1  0
  2 18  1  0
  2 19  1  0
  4 20  1  0
  5 21  1  0
  6 22  1  0
  7 23  1  0
 10 24  1  0
 11 25  1  0
 12 26  1  0
 13 27  1  0
M  END
$$$$
