
     RDKit          3D

 59 62  0  0  0  0  0  0  0  0999 V2000
   -0.3041    3.7712   -0.2982 C   0  0  0  0  0  0  0  0  0  0  0  0
   -1.0470    2.5795   -0.7062 C   0  0  0  0  0  0  0  0  0  0  0  0
   -1.6577    1.5950   -1.0375 C   0  0  0  0  0  0  0  0  0  0  0  0
   -2.3965    0.3906   -1.4305 C   0  0  0  0  0  0  0  0  0  0  0  0
   -1.7572   -0.8054   -0.8477 N   0  0  0  0  0  0  0  0  0  0  0  0
   -2.1696   -1.2901    0.3675 C   0  0  0  0  0  0  0  0  0  0  0  0
   -3.2284   -0.6557    1.0993 N   0  0  0  0  0  0  0  0  0  0  0  0
   -2.9099    0.4239    2.0390 C   0  0  0  0  0  0  0  0  0  0  0  0
   -3.9482    1.5563    1.9523 C   0  0  0  0  0  0  0  0  0  0  0  0
   -5.3787    1.0704    1.6317 C   0  0  0  0  0  0  0  0  0  0  0  0
   -5.5677   -0.4293    1.9078 C   0  0  1  0  0  0  0  0  0  0  0  0
   -6.9501   -0.8242    1.6297 N   0  0  0  0  0  0  0  0  0  0  0  0
   -4.5718   -1.2464    1.0596 C   0  0  0  0  0  0  0  0  0  0  0  0
   -1.5432   -2.3997    0.9253 C   0  0  0  0  0  0  0  0  0  0  0  0
   -0.4880   -2.9955    0.2480 C   0  0  0  0  0  0  0  0  0  0  0  0
    0.0851   -3.9910    0.7699 O   0  0  0  0  0  0  0  0  0  0  0  0
   -0.0752   -2.4999   -0.9604 N   0  0  0  0  0  0  0  0  0  0  0  0
    1.0906   -3.0955   -1.6434 C   0  0  0  0  0  0  0  0  0  0  0  0
    2.3481   -2.3976   -1.2124 C   0  0  0  0  0  0  0  0  0  0  0  0
    3.1513   -2.9274   -0.1919 C   0  0  0  0  0  0  0  0  0  0  0  0
    4.2872   -2.2297    0.2240 C   0  0  0  0  0  0  0  0  0  0  0  0
    4.6093   -1.0038   -0.3713 C   0  0  0  0  0  0  0  0  0  0  0  0
    5.7389   -0.2744    0.0271 C   0  0  0  0  0  0  0  0  0  0  0  0
    6.0394    0.9541   -0.5760 C   0  0  0  0  0  0  0  0  0  0  0  0
    7.1800    1.6460   -0.1421 O   0  0  0  0  0  0  0  0  0  0  0  0
    7.6054    2.9013   -0.6623 C   0  0  0  0  0  0  0  0  0  0  0  0
    5.1949    1.4517   -1.5889 C   0  0  0  0  0  0  0  0  0  0  0  0
    4.0681    0.7276   -1.9898 C   0  0  0  0  0  0  0  0  0  0  0  0
    3.7713   -0.4981   -1.3875 C   0  0  0  0  0  0  0  0  0  0  0  0
    2.6733   -1.2007   -1.7739 N   0  0  0  0  0  0  0  0  0  0  0  0
   -0.7010   -1.3996   -1.4971 C   0  0  0  0  0  0  0  0  0  0  0  0
   -0.2944   -0.9222   -2.5950 O   0  0  0  0  0  0  0  0  0  0  0  0
   -0.5703    4.6188   -0.9627 H   0  0  0  0  0  0  0  0  0  0  0  0
   -0.5635    4.0268    0.7498 H   0  0  0  0  0  0  0  0  0  0  0  0
    0.7847    3.5710   -0.3715 H   0  0  0  0  0  0  0  0  0  0  0  0
   -2.4236    0.3256   -2.5393 H   0  0  0  0  0  0  0  0  0  0  0  0
   -3.4531    0.4898   -1.1065 H   0  0  0  0  0  0  0  0  0  0  0  0
   -2.9002    0.0078    3.0698 H   0  0  0  0  0  0  0  0  0  0  0  0
   -1.8974    0.8377    1.8368 H   0  0  0  0  0  0  0  0  0  0  0  0
   -3.6333    2.2799    1.1692 H   0  0  0  0  0  0  0  0  0  0  0  0
   -3.9519    2.1050    2.9192 H   0  0  0  0  0  0  0  0  0  0  0  0
   -5.5970    1.2711    0.5589 H   0  0  0  0  0  0  0  0  0  0  0  0
   -6.1090    1.6543    2.2334 H   0  0  0  0  0  0  0  0  0  0  0  0
   -5.3622   -0.6165    2.9859 H   0  0  0  0  0  0  0  0  0  0  0  0
   -7.0589   -1.8389    1.8599 H   0  0  0  0  0  0  0  0  0  0  0  0
   -7.1468   -0.7135    0.6079 H   0  0  0  0  0  0  0  0  0  0  0  0
   -4.5323   -2.2903    1.4396 H   0  0  0  0  0  0  0  0  0  0  0  0
   -4.9163   -1.2751    0.0028 H   0  0  0  0  0  0  0  0  0  0  0  0
   -1.8651   -2.7831    1.8866 H   0  0  0  0  0  0  0  0  0  0  0  0
    0.9847   -3.0168   -2.7474 H   0  0  0  0  0  0  0  0  0  0  0  0
    1.1589   -4.1869   -1.4390 H   0  0  0  0  0  0  0  0  0  0  0  0
    2.8994   -3.8695    0.2786 H   0  0  0  0  0  0  0  0  0  0  0  0
    4.9070   -2.6432    1.0106 H   0  0  0  0  0  0  0  0  0  0  0  0
    6.3880   -0.6552    0.8070 H   0  0  0  0  0  0  0  0  0  0  0  0
    7.8225    2.8111   -1.7476 H   0  0  0  0  0  0  0  0  0  0  0  0
    6.8228    3.6705   -0.4913 H   0  0  0  0  0  0  0  0  0  0  0  0
    8.5320    3.2151   -0.1396 H   0  0  0  0  0  0  0  0  0  0  0  0
    5.4005    2.3971   -2.0720 H   0  0  0  0  0  0  0  0  0  0  0  0
    3.4266    1.1220   -2.7682 H   0  0  0  0  0  0  0  0  0  0  0  0
  1  2  1  0
  2  3  3  0
  3  4  1  0
  4  5  1  0
  5  6  1  0
  6  7  1  0
  7  8  1  0
  8  9  1  0
  9 10  1  0
 10 11  1  0
 11 12  1  0
 11 13  1  0
  6 14  2  0
 14 15  1  0
 15 16  2  0
 15 17  1  0
 17 18  1  0
 18 19  1  0
 19 20  2  0
 20 21  1  0
 21 22  2  0
 22 23  1  0
 23 24  2  0
 24 25  1  0
 25 26  1  0
 24 27  1  0
 27 28  2  0
 28 29  1  0
 29 30  2  0
 17 31  1  0
 31 32  2  0
 31  5  1  0
 13  7  1  0
 30 19  1  0
 29 22  1  0
  1 33  1  0
  1 34  1  0
  1 35  1  0
  4 36  1  0
  4 37  1  0
  8 38  1  0
  8 39  1  0
  9 40  1  0
  9 41  1  0
 10 42  1  0
 10 43  1  0
 11 44  1  1
 12 45  1  0
 12 46  1  0
 13 47  1  0
 13 48  1  0
 14 49  1  0
 18 50  1  0
 18 51  1  0
 20 52  1  0
 21 53  1  0
 23 54  1  0
 26 55  1  0
 26 56  1  0
 26 57  1  0
 27 58  1  0
 28 59  1  0
M  END
$$$$
