
     RDKit          3D

 76 79  0  0  0  0  0  0  0  0999 V2000
   -6.0786    2.5670   -2.2030 C   0  0  0  0  0  0  0  0  0  0  0  0
   -5.4537    1.4771   -1.5380 O   0  0  0  0  0  0  0  0  0  0  0  0
   -5.4198    0.1854   -2.0741 C   0  0  0  0  0  0  0  0  0  0  0  0
   -5.9544   -0.0603   -3.1899 O   0  0  0  0  0  0  0  0  0  0  0  0
   -4.7844   -0.9312   -1.2912 C   0  0  0  0  0  0  0  0  0  0  0  0
   -5.8248   -1.6755   -0.4230 C   0  0  0  0  0  0  0  0  0  0  0  0
   -6.5480   -0.7868    0.5652 C   0  0  0  0  0  0  0  0  0  0  0  0
   -6.1050   -0.6878    1.8959 C   0  0  0  0  0  0  0  0  0  0  0  0
   -6.7681    0.1471    2.8004 C   0  0  0  0  0  0  0  0  0  0  0  0
   -7.8807    0.8845    2.3876 C   0  0  0  0  0  0  0  0  0  0  0  0
   -8.3361    0.7836    1.0707 C   0  0  0  0  0  0  0  0  0  0  0  0
   -7.6772   -0.0513    0.1634 C   0  0  0  0  0  0  0  0  0  0  0  0
   -3.6699   -0.4206   -0.4843 N   0  0  0  0  0  0  0  0  0  0  0  0
   -2.4778    0.1096   -1.0818 C   0  0  0  0  0  0  0  0  0  0  0  0
   -2.3416    0.1074   -2.3365 O   0  0  0  0  0  0  0  0  0  0  0  0
   -1.4161    0.7332   -0.2135 C   0  0  2  0  0  0  0  0  0  0  0  0
   -1.5841    2.2513   -0.1474 C   0  0  0  0  0  0  0  0  0  0  0  0
   -0.5585    2.8225   -1.1221 C   0  0  0  0  0  0  0  0  0  0  0  0
    0.5081    1.7462   -1.2807 C   0  0  0  0  0  0  0  0  0  0  0  0
   -0.0935    0.5169   -0.7852 N   0  0  0  0  0  0  0  0  0  0  0  0
    0.5690   -0.7633   -0.7666 C   0  0  0  0  0  0  0  0  0  0  0  0
   -0.0155   -1.7477   -0.2395 O   0  0  0  0  0  0  0  0  0  0  0  0
    1.9695   -0.9209   -1.3228 C   0  0  2  0  0  0  0  0  0  0  0  0
    2.3636   -2.3844   -1.6450 C   0  0  0  0  0  0  0  0  0  0  0  0
    2.6273   -3.2429   -0.4265 C   0  0  0  0  0  0  0  0  0  0  0  0
    3.8547   -3.1535    0.2547 C   0  0  0  0  0  0  0  0  0  0  0  0
    4.0997   -3.9486    1.3782 C   0  0  0  0  0  0  0  0  0  0  0  0
    3.1294   -4.8491    1.8241 C   0  0  0  0  0  0  0  0  0  0  0  0
    1.9155   -4.9618    1.1420 C   0  0  0  0  0  0  0  0  0  0  0  0
    1.6661   -4.1682    0.0181 C   0  0  0  0  0  0  0  0  0  0  0  0
    2.9372   -0.3007   -0.4140 N   0  0  0  0  0  0  0  0  0  0  0  0
    4.1793    0.2499   -0.8656 C   0  0  0  0  0  0  0  0  0  0  0  0
    4.4569    0.2750   -2.0964 O   0  0  0  0  0  0  0  0  0  0  0  0
    5.0832    0.7510    0.0742 O   0  0  0  0  0  0  0  0  0  0  0  0
    6.3479    1.2932   -0.2885 C   0  0  0  0  0  0  0  0  0  0  0  0
    7.0782    1.7144    0.9525 C   0  0  0  0  0  0  0  0  0  0  0  0
    6.9338    3.0192    1.4522 C   0  0  0  0  0  0  0  0  0  0  0  0
    7.5846    3.3973    2.6309 C   0  0  0  0  0  0  0  0  0  0  0  0
    8.3720    2.4735    3.3238 C   0  0  0  0  0  0  0  0  0  0  0  0
    8.5059    1.1684    2.8418 C   0  0  0  0  0  0  0  0  0  0  0  0
    7.8569    0.7863    1.6634 C   0  0  0  0  0  0  0  0  0  0  0  0
   -7.1590    2.3539   -2.3474 H   0  0  0  0  0  0  0  0  0  0  0  0
   -5.5938    2.7403   -3.1870 H   0  0  0  0  0  0  0  0  0  0  0  0
   -5.9720    3.4807   -1.5831 H   0  0  0  0  0  0  0  0  0  0  0  0
   -4.3747   -1.6737   -2.0120 H   0  0  0  0  0  0  0  0  0  0  0  0
   -5.3150   -2.5028    0.1179 H   0  0  0  0  0  0  0  0  0  0  0  0
   -6.5715   -2.1595   -1.0905 H   0  0  0  0  0  0  0  0  0  0  0  0
   -5.2495   -1.2583    2.2349 H   0  0  0  0  0  0  0  0  0  0  0  0
   -6.4198    0.2215    3.8225 H   0  0  0  0  0  0  0  0  0  0  0  0
   -8.3922    1.5309    3.0890 H   0  0  0  0  0  0  0  0  0  0  0  0
   -9.2005    1.3520    0.7526 H   0  0  0  0  0  0  0  0  0  0  0  0
   -8.0438   -0.1208   -0.8532 H   0  0  0  0  0  0  0  0  0  0  0  0
   -3.7241   -0.4454    0.5574 H   0  0  0  0  0  0  0  0  0  0  0  0
   -1.4576    0.3062    0.8132 H   0  0  0  0  0  0  0  0  0  0  0  0
   -1.3414    2.6020    0.8801 H   0  0  0  0  0  0  0  0  0  0  0  0
   -2.6148    2.5880   -0.3991 H   0  0  0  0  0  0  0  0  0  0  0  0
   -1.0480    3.0107   -2.1031 H   0  0  0  0  0  0  0  0  0  0  0  0
   -0.1241    3.7727   -0.7424 H   0  0  0  0  0  0  0  0  0  0  0  0
    1.4026    1.9990   -0.6717 H   0  0  0  0  0  0  0  0  0  0  0  0
    0.7901    1.6411   -2.3502 H   0  0  0  0  0  0  0  0  0  0  0  0
    1.9849   -0.3778   -2.2920 H   0  0  0  0  0  0  0  0  0  0  0  0
    1.5718   -2.8448   -2.2764 H   0  0  0  0  0  0  0  0  0  0  0  0
    3.2825   -2.3740   -2.2712 H   0  0  0  0  0  0  0  0  0  0  0  0
    4.6249   -2.4741   -0.0865 H   0  0  0  0  0  0  0  0  0  0  0  0
    5.0444   -3.8696    1.9005 H   0  0  0  0  0  0  0  0  0  0  0  0
    3.3212   -5.4649    2.6932 H   0  0  0  0  0  0  0  0  0  0  0  0
    1.1684   -5.6674    1.4820 H   0  0  0  0  0  0  0  0  0  0  0  0
    0.7252   -4.2793   -0.5060 H   0  0  0  0  0  0  0  0  0  0  0  0
    2.7550   -0.3196    0.6155 H   0  0  0  0  0  0  0  0  0  0  0  0
    6.9405    0.5283   -0.8370 H   0  0  0  0  0  0  0  0  0  0  0  0
    6.2025    2.1645   -0.9642 H   0  0  0  0  0  0  0  0  0  0  0  0
    6.3183    3.7418    0.9306 H   0  0  0  0  0  0  0  0  0  0  0  0
    7.4752    4.4055    3.0094 H   0  0  0  0  0  0  0  0  0  0  0  0
    8.8737    2.7672    4.2368 H   0  0  0  0  0  0  0  0  0  0  0  0
    9.1094    0.4515    3.3835 H   0  0  0  0  0  0  0  0  0  0  0  0
    7.9600   -0.2309    1.3061 H   0  0  0  0  0  0  0  0  0  0  0  0
  1  2  1  0
  2  3  1  0
  3  4  2  0
  3  5  1  0
  5  6  1  0
  6  7  1  0
  7  8  2  0
  8  9  1  0
  9 10  2  0
 10 11  1  0
 11 12  2  0
  5 13  1  0
 13 14  1  0
 14 15  2  0
 14 16  1  0
 16 17  1  0
 17 18  1  0
 18 19  1  0
 19 20  1  0
 20 21  1  0
 21 22  2  0
 21 23  1  0
 23 24  1  0
 24 25  1  0
 25 26  2  0
 26 27  1  0
 27 28  2  0
 28 29  1  0
 29 30  2  0
 23 31  1  0
 31 32  1  0
 32 33  2  0
 32 34  1  0
 34 35  1  0
 35 36  1  0
 36 37  2  0
 37 38  1  0
 38 39  2  0
 39 40  1  0
 40 41  2  0
 12  7  1  0
 20 16  1  0
 30 25  1  0
 41 36  1  0
  1 42  1  0
  1 43  1  0
  1 44  1  0
  5 45  1  0
  6 46  1  0
  6 47  1  0
  8 48  1  0
  9 49  1  0
 10 50  1  0
 11 51  1  0
 12 52  1  0
 13 53  1  0
 16 54  1  1
 17 55  1  0
 17 56  1  0
 18 57  1  0
 18 58  1  0
 19 59  1  0
 19 60  1  0
 23 61  1  6
 24 62  1  0
 24 63  1  0
 26 64  1  0
 27 65  1  0
 28 66  1  0
 29 67  1  0
 30 68  1  0
 31 69  1  0
 35 70  1  0
 35 71  1  0
 37 72  1  0
 38 73  1  0
 39 74  1  0
 40 75  1  0
 41 76  1  0
M  END
$$$$
