
     RDKit          3D

 44 44  0  0  0  0  0  0  0  0999 V2000
   -2.5679   -1.4774    1.2002 C   0  0  0  0  0  0  0  0  0  0  0  0
   -2.9212   -0.1369    0.5004 C   0  0  0  0  0  0  0  0  0  0  0  0
   -2.9438    0.9569    1.6009 C   0  0  0  0  0  0  0  0  0  0  0  0
   -4.3727   -0.2758   -0.0350 C   0  0  0  0  0  0  0  0  0  0  0  0
   -1.8580    0.2359   -0.6435 C   0  0  0  0  0  0  0  0  0  0  0  0
   -2.3637    1.4475   -1.4840 C   0  0  0  0  0  0  0  0  0  0  0  0
   -1.6494   -0.9469   -1.6331 C   0  0  0  0  0  0  0  0  0  0  0  0
   -0.5608    0.5614    0.0217 N   0  0  0  0  0  0  0  0  0  0  0  0
    0.4532    1.2473   -0.7983 C   0  0  0  0  0  0  0  0  0  0  0  0
    1.7188    1.4205   -0.0015 C   0  0  0  0  0  0  0  0  0  0  0  0
    1.7908    2.3928    0.7986 O   0  0  0  0  0  0  0  0  0  0  0  0
    2.8107    0.4772   -0.0741 N   0  0  0  0  0  0  0  0  0  0  0  0
    3.0006   -0.4868   -1.1518 C   0  0  2  0  0  0  0  0  0  0  0  0
    2.1484   -1.6656   -0.9279 C   0  0  0  0  0  0  0  0  0  0  0  0
    1.4826   -2.5951   -0.7503 N   0  0  0  0  0  0  0  0  0  0  0  0
    4.4798   -0.8675   -1.0988 C   0  0  0  0  0  0  0  0  0  0  0  0
    4.9427   -0.5200    0.3115 C   0  0  0  0  0  0  0  0  0  0  0  0
    3.9738    0.5573    0.8030 C   0  0  2  0  0  0  0  0  0  0  0  0
    3.5847    0.3233    2.2038 C   0  0  0  0  0  0  0  0  0  0  0  0
    3.2778    0.1396    3.3044 N   0  0  0  0  0  0  0  0  0  0  0  0
   -1.5485   -1.4634    1.6348 H   0  0  0  0  0  0  0  0  0  0  0  0
   -2.6535   -2.3353    0.5014 H   0  0  0  0  0  0  0  0  0  0  0  0
   -3.2705   -1.6799    2.0380 H   0  0  0  0  0  0  0  0  0  0  0  0
   -3.6732    0.6972    2.3990 H   0  0  0  0  0  0  0  0  0  0  0  0
   -3.2474    1.9417    1.1918 H   0  0  0  0  0  0  0  0  0  0  0  0
   -1.9506    1.0662    2.0855 H   0  0  0  0  0  0  0  0  0  0  0  0
   -4.7843    0.7000   -0.3664 H   0  0  0  0  0  0  0  0  0  0  0  0
   -4.4397   -1.0008   -0.8696 H   0  0  0  0  0  0  0  0  0  0  0  0
   -5.0514   -0.6388    0.7675 H   0  0  0  0  0  0  0  0  0  0  0  0
   -1.6813    1.6651   -2.3322 H   0  0  0  0  0  0  0  0  0  0  0  0
   -2.4422    2.3660   -0.8683 H   0  0  0  0  0  0  0  0  0  0  0  0
   -3.3421    1.2395   -1.9605 H   0  0  0  0  0  0  0  0  0  0  0  0
   -2.6063   -1.2847   -2.0766 H   0  0  0  0  0  0  0  0  0  0  0  0
   -1.1632   -1.8116   -1.1388 H   0  0  0  0  0  0  0  0  0  0  0  0
   -0.9972   -0.6522   -2.4807 H   0  0  0  0  0  0  0  0  0  0  0  0
   -0.1286   -0.3200    0.3833 H   0  0  0  0  0  0  0  0  0  0  0  0
    0.1011    2.2657   -1.0651 H   0  0  0  0  0  0  0  0  0  0  0  0
    0.6491    0.6968   -1.7374 H   0  0  0  0  0  0  0  0  0  0  0  0
    2.7716   -0.0321   -2.1394 H   0  0  0  0  0  0  0  0  0  0  0  0
    4.6677   -1.9383   -1.3383 H   0  0  0  0  0  0  0  0  0  0  0  0
    5.0431   -0.2427   -1.8270 H   0  0  0  0  0  0  0  0  0  0  0  0
    4.8875   -1.4382    0.9399 H   0  0  0  0  0  0  0  0  0  0  0  0
    5.9909   -0.1492    0.3095 H   0  0  0  0  0  0  0  0  0  0  0  0
    4.4427    1.5612    0.7093 H   0  0  0  0  0  0  0  0  0  0  0  0
  1  2  1  0
  2  3  1  0
  2  4  1  0
  2  5  1  0
  5  6  1  0
  5  7  1  0
  5  8  1  0
  8  9  1  0
  9 10  1  0
 10 11  2  0
 10 12  1  0
 12 13  1  0
 13 14  1  0
 14 15  3  0
 13 16  1  0
 16 17  1  0
 17 18  1  0
 18 19  1  0
 19 20  3  0
 18 12  1  0
  1 21  1  0
  1 22  1  0
  1 23  1  0
  3 24  1  0
  3 25  1  0
  3 26  1  0
  4 27  1  0
  4 28  1  0
  4 29  1  0
  6 30  1  0
  6 31  1  0
  6 32  1  0
  7 33  1  0
  7 34  1  0
  7 35  1  0
  8 36  1  0
  9 37  1  0
  9 38  1  0
 13 39  1  6
 16 40  1  0
 16 41  1  0
 17 42  1  0
 17 43  1  0
 18 44  1  1
M  END
$$$$
