
     RDKit          3D

 53 53  0  0  0  0  0  0  0  0999 V2000
    6.1520   -0.7677   -0.0315 C   0  0  0  0  0  0  0  0  0  0  0  0
    5.2993    0.2332    0.7396 C   0  0  0  0  0  0  0  0  0  0  0  0
    4.3485    0.8548   -0.1225 O   0  0  0  0  0  0  0  0  0  0  0  0
    3.1864    0.2185   -0.5726 C   0  0  0  0  0  0  0  0  0  0  0  0
    2.9018   -0.9505   -0.1936 O   0  0  0  0  0  0  0  0  0  0  0  0
    2.2446    0.9581   -1.4717 C   0  0  0  0  0  0  0  0  0  0  0  0
    1.4204    1.9914   -0.6914 C   0  0  0  0  0  0  0  0  0  0  0  0
    0.4884    1.3366    0.3119 C   0  0  0  0  0  0  0  0  0  0  0  0
    0.8986    1.2824    1.6501 C   0  0  0  0  0  0  0  0  0  0  0  0
    0.1212    0.6952    2.5896 N   0  0  0  0  0  0  0  0  0  0  0  0
   -1.0792    0.1311    2.3017 C   0  0  0  0  0  0  0  0  0  0  0  0
   -1.8425   -0.4974    3.4397 C   0  0  0  0  0  0  0  0  0  0  0  0
   -1.8200   -1.9517    3.3204 N   0  0  0  0  0  0  0  0  0  0  0  0
   -1.5463    0.1297    0.9627 C   0  0  0  0  0  0  0  0  0  0  0  0
   -2.7736   -0.4660    0.6071 C   0  0  0  0  0  0  0  0  0  0  0  0
   -3.2208   -0.4652   -0.7245 C   0  0  0  0  0  0  0  0  0  0  0  0
   -4.4390   -1.0535   -1.1031 O   0  0  0  0  0  0  0  0  0  0  0  0
   -5.3390   -1.7018   -0.2098 C   0  0  0  0  0  0  0  0  0  0  0  0
   -2.4410    0.1338   -1.7176 C   0  0  0  0  0  0  0  0  0  0  0  0
   -2.9197    0.1123   -3.0382 O   0  0  0  0  0  0  0  0  0  0  0  0
   -2.2400    0.6728   -4.1572 C   0  0  0  0  0  0  0  0  0  0  0  0
   -1.2156    0.7321   -1.3773 C   0  0  0  0  0  0  0  0  0  0  0  0
   -0.7510    0.7402   -0.0450 C   0  0  0  0  0  0  0  0  0  0  0  0
    0.7471    0.0428   -1.5487 O   0  0  0  0  0  0  0  0  0  0  0  0
    0.4689    0.0277   -0.3197 C   0  0  0  0  0  0  0  0  0  0  0  0
    1.4923   -0.0193    0.6223 O   0  0  0  0  0  0  0  0  0  0  0  0
   -0.9578    0.0000    0.1237 C   0  0  0  0  0  0  0  0  0  0  0  0
   -1.4264   -1.2994    0.0804 F   0  0  0  0  0  0  0  0  0  0  0  0
   -1.7275    0.7909   -0.7102 F   0  0  0  0  0  0  0  0  0  0  0  0
   -1.0602    0.4777    1.4175 F   0  0  0  0  0  0  0  0  0  0  0  0
    5.5217   -1.5921   -0.4249 H   0  0  0  0  0  0  0  0  0  0  0  0
    6.9223   -1.1986    0.6422 H   0  0  0  0  0  0  0  0  0  0  0  0
    6.6585   -0.2597   -0.8792 H   0  0  0  0  0  0  0  0  0  0  0  0
    4.7835   -0.2695    1.5865 H   0  0  0  0  0  0  0  0  0  0  0  0
    5.9629    1.0188    1.1583 H   0  0  0  0  0  0  0  0  0  0  0  0
    2.8382    1.4849   -2.2491 H   0  0  0  0  0  0  0  0  0  0  0  0
    1.5767    0.2394   -1.9931 H   0  0  0  0  0  0  0  0  0  0  0  0
    0.8452    2.6272   -1.3958 H   0  0  0  0  0  0  0  0  0  0  0  0
    2.1146    2.6927   -0.1767 H   0  0  0  0  0  0  0  0  0  0  0  0
    1.8477    1.7073    1.9517 H   0  0  0  0  0  0  0  0  0  0  0  0
   -1.3925   -0.1970    4.4130 H   0  0  0  0  0  0  0  0  0  0  0  0
   -2.8913   -0.1302    3.4429 H   0  0  0  0  0  0  0  0  0  0  0  0
   -0.8413   -2.2785    3.4935 H   0  0  0  0  0  0  0  0  0  0  0  0
   -2.4066   -2.3435    4.0923 H   0  0  0  0  0  0  0  0  0  0  0  0
   -3.3859   -0.9383    1.3591 H   0  0  0  0  0  0  0  0  0  0  0  0
   -4.8404   -2.5691    0.2723 H   0  0  0  0  0  0  0  0  0  0  0  0
   -5.6941   -0.9858    0.5613 H   0  0  0  0  0  0  0  0  0  0  0  0
   -6.2150   -2.0697   -0.7821 H   0  0  0  0  0  0  0  0  0  0  0  0
   -2.1044    1.7656   -4.0138 H   0  0  0  0  0  0  0  0  0  0  0  0
   -2.8481    0.5079   -5.0700 H   0  0  0  0  0  0  0  0  0  0  0  0
   -1.2549    0.1782   -4.2930 H   0  0  0  0  0  0  0  0  0  0  0  0
   -0.6306    1.1825   -2.1620 H   0  0  0  0  0  0  0  0  0  0  0  0
    2.4636   -0.0205    0.3346 H   0  0  0  0  0  0  0  0  0  0  0  0
  1  2  1  0
  2  3  1  0
  3  4  1  0
  4  5  2  0
  4  6  1  0
  6  7  1  0
  7  8  1  0
  8  9  2  0
  9 10  1  0
 10 11  2  0
 11 12  1  0
 12 13  1  0
 11 14  1  0
 14 15  2  0
 15 16  1  0
 16 17  1  0
 17 18  1  0
 16 19  2  0
 19 20  1  0
 20 21  1  0
 19 22  1  0
 22 23  2  0
 24 25  2  0
 25 26  1  0
 25 27  1  0
 27 28  1  0
 27 29  1  0
 27 30  1  0
 23  8  1  0
 23 14  1  0
  1 31  1  0
  1 32  1  0
  1 33  1  0
  2 34  1  0
  2 35  1  0
  6 36  1  0
  6 37  1  0
  7 38  1  0
  7 39  1  0
  9 40  1  0
 12 41  1  0
 12 42  1  0
 13 43  1  0
 13 44  1  0
 15 45  1  0
 18 46  1  0
 18 47  1  0
 18 48  1  0
 21 49  1  0
 21 50  1  0
 21 51  1  0
 22 52  1  0
 26 53  1  0
M  END
$$$$
