
     RDKit          3D

 49 49  0  0  0  0  0  0  0  0999 V2000
    6.3743    1.1837    1.4591 C   0  0  0  0  0  0  0  0  0  0  0  0
    5.1780    0.8944    2.1749 O   0  0  0  0  0  0  0  0  0  0  0  0
    3.9764    0.4864    1.5769 C   0  0  0  0  0  0  0  0  0  0  0  0
    3.8427    0.3228    0.1857 C   0  0  0  0  0  0  0  0  0  0  0  0
    2.6236   -0.0854   -0.3626 C   0  0  0  0  0  0  0  0  0  0  0  0
    1.5155   -0.3393    0.4668 C   0  0  0  0  0  0  0  0  0  0  0  0
    0.1805   -0.7722   -0.1172 C   0  0  2  0  0  0  0  0  0  0  0  0
    0.3373   -2.1165   -0.8478 C   0  0  0  0  0  0  0  0  0  0  0  0
   -0.4188    0.3271   -1.0450 C   0  0  2  0  0  0  0  0  0  0  0  0
   -0.4754    1.6446   -0.3985 N   0  0  0  0  0  0  0  0  0  0  0  0
   -1.7846   -0.0581   -1.5808 C   0  0  0  0  0  0  0  0  0  0  0  0
   -1.8584   -0.4241   -2.7861 O   0  0  0  0  0  0  0  0  0  0  0  0
   -2.9819   -0.0823   -0.7728 N   0  0  0  0  0  0  0  0  0  0  0  0
   -3.1442    0.5378    0.5341 C   0  0  0  0  0  0  0  0  0  0  0  0
   -4.5456    0.1659    0.9992 C   0  0  0  0  0  0  0  0  0  0  0  0
   -5.2941   -0.2698   -0.2553 C   0  0  2  0  0  0  0  0  0  0  0  0
   -6.1428   -1.3304    0.0146 F   0  0  0  0  0  0  0  0  0  0  0  0
   -4.2213   -0.6681   -1.2600 C   0  0  0  0  0  0  0  0  0  0  0  0
    1.6552   -0.1727    1.8552 C   0  0  0  0  0  0  0  0  0  0  0  0
    2.8748    0.2356    2.4016 C   0  0  0  0  0  0  0  0  0  0  0  0
    0.8184    0.0690   -1.5113 O   0  0  0  0  0  0  0  0  0  0  0  0
    0.4832    0.0342   -0.2970 C   0  0  0  0  0  0  0  0  0  0  0  0
    1.4617   -0.0234    0.6909 O   0  0  0  0  0  0  0  0  0  0  0  0
   -0.9626   -0.0053    0.0789 C   0  0  0  0  0  0  0  0  0  0  0  0
   -1.4229   -1.3056   -0.0054 F   0  0  0  0  0  0  0  0  0  0  0  0
   -1.6959    0.7950   -0.7784 F   0  0  0  0  0  0  0  0  0  0  0  0
   -1.1273    0.4528    1.3733 F   0  0  0  0  0  0  0  0  0  0  0  0
    6.7165    0.2827    0.9073 H   0  0  0  0  0  0  0  0  0  0  0  0
    7.1644    1.4810    2.1786 H   0  0  0  0  0  0  0  0  0  0  0  0
    6.2029    2.0229    0.7523 H   0  0  0  0  0  0  0  0  0  0  0  0
    4.6737    0.5094   -0.4806 H   0  0  0  0  0  0  0  0  0  0  0  0
    2.5461   -0.2007   -1.4358 H   0  0  0  0  0  0  0  0  0  0  0  0
   -0.5307   -0.9567    0.7144 H   0  0  0  0  0  0  0  0  0  0  0  0
    0.9430   -2.0023   -1.7716 H   0  0  0  0  0  0  0  0  0  0  0  0
    0.8322   -2.8574   -0.1837 H   0  0  0  0  0  0  0  0  0  0  0  0
   -0.6577   -2.5241   -1.1253 H   0  0  0  0  0  0  0  0  0  0  0  0
    0.2538    0.4193   -1.9296 H   0  0  0  0  0  0  0  0  0  0  0  0
    0.4448    2.1242   -0.5323 H   0  0  0  0  0  0  0  0  0  0  0  0
   -0.6006    1.5409    0.6338 H   0  0  0  0  0  0  0  0  0  0  0  0
   -2.3998    0.1530    1.2589 H   0  0  0  0  0  0  0  0  0  0  0  0
   -3.0581    1.6414    0.4371 H   0  0  0  0  0  0  0  0  0  0  0  0
   -4.4856   -0.6833    1.7157 H   0  0  0  0  0  0  0  0  0  0  0  0
   -5.0501    1.0243    1.4937 H   0  0  0  0  0  0  0  0  0  0  0  0
   -5.8841    0.5852   -0.6533 H   0  0  0  0  0  0  0  0  0  0  0  0
   -4.1120   -1.7734   -1.3095 H   0  0  0  0  0  0  0  0  0  0  0  0
   -4.4733   -0.2697   -2.2671 H   0  0  0  0  0  0  0  0  0  0  0  0
    0.8189   -0.3554    2.5185 H   0  0  0  0  0  0  0  0  0  0  0  0
    2.9645    0.3593    3.4735 H   0  0  0  0  0  0  0  0  0  0  0  0
    2.4454   -0.0167    0.4489 H   0  0  0  0  0  0  0  0  0  0  0  0
  1  2  1  0
  2  3  1  0
  3  4  2  0
  4  5  1  0
  5  6  2  0
  6  7  1  0
  7  8  1  0
  7  9  1  0
  9 10  1  0
  9 11  1  0
 11 12  2  0
 11 13  1  0
 13 14  1  0
 14 15  1  0
 15 16  1  0
 16 17  1  0
 16 18  1  0
  6 19  1  0
 19 20  2  0
 21 22  2  0
 22 23  1  0
 22 24  1  0
 24 25  1  0
 24 26  1  0
 24 27  1  0
 20  3  1  0
 18 13  1  0
  1 28  1  0
  1 29  1  0
  1 30  1  0
  4 31  1  0
  5 32  1  0
  7 33  1  1
  8 34  1  0
  8 35  1  0
  8 36  1  0
  9 37  1  6
 10 38  1  0
 10 39  1  0
 14 40  1  0
 14 41  1  0
 15 42  1  0
 15 43  1  0
 16 44  1  6
 18 45  1  0
 18 46  1  0
 19 47  1  0
 20 48  1  0
 23 49  1  0
M  END
$$$$
