
     RDKit          3D

 55 56  0  0  0  0  0  0  0  0999 V2000
    0.6878    0.0000    0.0000 Cl  0  0  0  0  0  0  0  0  0  0  0  0
    6.4074    1.0224    2.8760 N   0  0  0  0  0  0  0  0  0  0  0  0
    5.1497    1.2194    2.2248 C   0  0  0  0  0  0  0  0  0  0  0  0
    5.0916    1.8688    0.9839 C   0  0  0  0  0  0  0  0  0  0  0  0
    3.8623    2.0602    0.3463 C   0  0  0  0  0  0  0  0  0  0  0  0
    2.6759    1.6081    0.9447 C   0  0  0  0  0  0  0  0  0  0  0  0
    1.3602    1.7924    0.2392 C   0  0  0  0  0  0  0  0  0  0  0  0
    1.2843    0.9124   -0.9246 N   0  0  0  0  0  0  0  0  0  0  0  0
    1.1227   -0.5079   -0.8055 C   0  0  0  0  0  0  0  0  0  0  0  0
    0.9719   -1.0364    0.3303 O   0  0  0  0  0  0  0  0  0  0  0  0
    1.1719   -1.3804   -2.0323 C   0  0  0  0  0  0  0  0  0  0  0  0
    2.4374   -2.2610   -2.0368 C   0  0  0  0  0  0  0  0  0  0  0  0
    1.8706   -3.6394   -1.9555 C   0  0  0  0  0  0  0  0  0  0  0  0
    0.5843   -3.6534   -1.9604 N   0  0  0  0  0  0  0  0  0  0  0  0
    0.0835   -2.3536   -2.0218 N   0  0  0  0  0  0  0  0  0  0  0  0
   -1.3162   -2.0899   -2.2220 C   0  0  0  0  0  0  0  0  0  0  0  0
   -2.1282   -3.0543   -2.2145 O   0  0  0  0  0  0  0  0  0  0  0  0
   -1.8438   -0.7009   -2.4854 C   0  0  0  0  0  0  0  0  0  0  0  0
   -2.9306   -0.2812   -1.4709 C   0  0  2  0  0  0  0  0  0  0  0  0
   -3.5231    0.9920   -1.8937 N   0  0  0  0  0  0  0  0  0  0  0  0
   -2.3302   -0.1400   -0.0541 C   0  0  0  0  0  0  0  0  0  0  0  0
   -3.3897    0.1011    0.9924 C   0  0  0  0  0  0  0  0  0  0  0  0
   -3.6171    1.3994    1.4807 C   0  0  0  0  0  0  0  0  0  0  0  0
   -4.6099    1.6303    2.4380 C   0  0  0  0  0  0  0  0  0  0  0  0
   -4.8209    2.8866    2.9028 F   0  0  0  0  0  0  0  0  0  0  0  0
   -5.3849    0.5681    2.9131 C   0  0  0  0  0  0  0  0  0  0  0  0
   -6.3483    0.7908    3.8410 F   0  0  0  0  0  0  0  0  0  0  0  0
   -5.1684   -0.7255    2.4302 C   0  0  0  0  0  0  0  0  0  0  0  0
   -4.1770   -0.9622    1.4724 C   0  0  0  0  0  0  0  0  0  0  0  0
   -3.9840   -2.2256    1.0151 F   0  0  0  0  0  0  0  0  0  0  0  0
    2.7366    0.9532    2.1853 C   0  0  0  0  0  0  0  0  0  0  0  0
    3.9666    0.7621    2.8219 C   0  0  0  0  0  0  0  0  0  0  0  0
   -0.6878    0.0000    0.0000 H   0  0  0  0  0  0  0  0  0  0  0  0
    7.2943    1.3586    2.4387 H   0  0  0  0  0  0  0  0  0  0  0  0
    6.4610    0.5388    3.8003 H   0  0  0  0  0  0  0  0  0  0  0  0
    5.9982    2.2239    0.5103 H   0  0  0  0  0  0  0  0  0  0  0  0
    3.8339    2.5579   -0.6153 H   0  0  0  0  0  0  0  0  0  0  0  0
    1.2745    2.8496   -0.0933 H   0  0  0  0  0  0  0  0  0  0  0  0
    0.5034    1.5945    0.9191 H   0  0  0  0  0  0  0  0  0  0  0  0
    1.3623    1.3392   -1.8751 H   0  0  0  0  0  0  0  0  0  0  0  0
    1.1306   -0.7743   -2.9637 H   0  0  0  0  0  0  0  0  0  0  0  0
    2.9999   -2.1423   -2.9874 H   0  0  0  0  0  0  0  0  0  0  0  0
    3.1100   -2.0721   -1.1715 H   0  0  0  0  0  0  0  0  0  0  0  0
    2.4618   -4.5443   -1.9202 H   0  0  0  0  0  0  0  0  0  0  0  0
   -1.0329    0.0544   -2.4851 H   0  0  0  0  0  0  0  0  0  0  0  0
   -2.2777   -0.7021   -3.5086 H   0  0  0  0  0  0  0  0  0  0  0  0
   -3.7261   -1.0616   -1.4589 H   0  0  0  0  0  0  0  0  0  0  0  0
   -3.9104    0.8765   -2.8586 H   0  0  0  0  0  0  0  0  0  0  0  0
   -4.3526    1.1923   -1.2895 H   0  0  0  0  0  0  0  0  0  0  0  0
   -1.7776   -1.0637    0.2206 H   0  0  0  0  0  0  0  0  0  0  0  0
   -1.5905    0.6893   -0.0497 H   0  0  0  0  0  0  0  0  0  0  0  0
   -3.0281    2.2324    1.1169 H   0  0  0  0  0  0  0  0  0  0  0  0
   -5.7707   -1.5464    2.7979 H   0  0  0  0  0  0  0  0  0  0  0  0
    1.8337    0.5879    2.6587 H   0  0  0  0  0  0  0  0  0  0  0  0
    3.9980    0.2561    3.7787 H   0  0  0  0  0  0  0  0  0  0  0  0
  2  3  1  0
  3  4  2  0
  4  5  1  0
  5  6  2  0
  6  7  1  0
  7  8  1  0
  8  9  1  0
  9 10  2  0
  9 11  1  0
 11 12  1  0
 12 13  1  0
 13 14  2  0
 14 15  1  0
 15 16  1  0
 16 17  2  0
 16 18  1  0
 18 19  1  0
 19 20  1  0
 19 21  1  0
 21 22  1  0
 22 23  2  0
 23 24  1  0
 24 25  1  0
 24 26  2  0
 26 27  1  0
 26 28  1  0
 28 29  2  0
 29 30  1  0
  6 31  1  0
 31 32  2  0
 32  3  1  0
 15 11  1  0
 29 22  1  0
  1 33  1  0
  2 34  1  0
  2 35  1  0
  4 36  1  0
  5 37  1  0
  7 38  1  0
  7 39  1  0
  8 40  1  0
 11 41  1  0
 12 42  1  0
 12 43  1  0
 13 44  1  0
 18 45  1  0
 18 46  1  0
 19 47  1  1
 20 48  1  0
 20 49  1  0
 21 50  1  0
 21 51  1  0
 23 52  1  0
 28 53  1  0
 31 54  1  0
 32 55  1  0
M  END
$$$$
