
     RDKit          3D

 42 44  0  0  0  0  0  0  0  0999 V2000
   -1.7093   -2.5031   -0.9562 N   0  0  0  0  0  0  0  0  0  0  0  0
   -1.0503   -1.2482   -1.3195 C   0  0  0  0  0  0  0  0  0  0  0  0
   -1.1363   -0.2007   -0.1664 C   0  0  2  0  0  0  0  0  0  0  0  0
   -2.6326    0.1035    0.1022 C   0  0  0  0  0  0  0  0  0  0  0  0
   -3.2928   -0.2864    1.2945 C   0  0  0  0  0  0  0  0  0  0  0  0
   -4.6505   -0.0161    1.4864 C   0  0  0  0  0  0  0  0  0  0  0  0
   -5.3866    0.6298    0.4957 C   0  0  0  0  0  0  0  0  0  0  0  0
   -4.7697    1.0001   -0.6984 C   0  0  0  0  0  0  0  0  0  0  0  0
   -5.7027    1.7906   -1.9564 Cl  0  0  0  0  0  0  0  0  0  0  0  0
   -3.4114    0.7338   -0.8980 C   0  0  0  0  0  0  0  0  0  0  0  0
   -0.4324    1.1287   -0.5931 C   0  0  0  0  0  0  0  0  0  0  0  0
    1.0962    1.0197   -0.7175 C   0  0  0  0  0  0  0  0  0  0  0  0
    1.7286    0.4951    0.5776 C   0  0  2  0  0  0  0  0  0  0  0  0
    3.1906    0.3733    0.4155 N   0  0  0  0  0  0  0  0  0  0  0  0
    3.6625   -0.5494   -0.4329 N   0  0  0  0  0  0  0  0  0  0  0  0
    4.9907   -0.7194   -0.6564 C   0  0  0  0  0  0  0  0  0  0  0  0
    5.9063    0.0891    0.0065 C   0  0  0  0  0  0  0  0  0  0  0  0
    5.4372    1.0601    0.8840 C   0  0  0  0  0  0  0  0  0  0  0  0
    4.0621    1.2001    1.0819 C   0  0  0  0  0  0  0  0  0  0  0  0
    3.6433    2.0896    1.8719 O   0  0  0  0  0  0  0  0  0  0  0  0
    1.1121   -0.8570    0.9661 C   0  0  0  0  0  0  0  0  0  0  0  0
   -0.4124   -0.7422    1.1125 C   0  0  0  0  0  0  0  0  0  0  0  0
   -1.4644   -3.2151   -1.6818 H   0  0  0  0  0  0  0  0  0  0  0  0
   -2.7440   -2.3664   -1.0214 H   0  0  0  0  0  0  0  0  0  0  0  0
   -1.5115   -0.8451   -2.2486 H   0  0  0  0  0  0  0  0  0  0  0  0
    0.0057   -1.4673   -1.5759 H   0  0  0  0  0  0  0  0  0  0  0  0
   -2.7831   -0.8079    2.0900 H   0  0  0  0  0  0  0  0  0  0  0  0
   -5.1352   -0.3157    2.4068 H   0  0  0  0  0  0  0  0  0  0  0  0
   -6.4384    0.8325    0.6529 H   0  0  0  0  0  0  0  0  0  0  0  0
   -2.9749    1.0115   -1.8469 H   0  0  0  0  0  0  0  0  0  0  0  0
   -0.8144    1.4833   -1.5730 H   0  0  0  0  0  0  0  0  0  0  0  0
   -0.6654    1.9213    0.1530 H   0  0  0  0  0  0  0  0  0  0  0  0
    1.5086    2.0289   -0.9357 H   0  0  0  0  0  0  0  0  0  0  0  0
    1.3639    0.3661   -1.5745 H   0  0  0  0  0  0  0  0  0  0  0  0
    1.4818    1.2139    1.3909 H   0  0  0  0  0  0  0  0  0  0  0  0
    5.3305   -1.4789   -1.3476 H   0  0  0  0  0  0  0  0  0  0  0  0
    6.9687   -0.0331   -0.1606 H   0  0  0  0  0  0  0  0  0  0  0  0
    6.1376    1.7019    1.4043 H   0  0  0  0  0  0  0  0  0  0  0  0
    1.3661   -1.6399    0.2214 H   0  0  0  0  0  0  0  0  0  0  0  0
    1.5407   -1.1811    1.9395 H   0  0  0  0  0  0  0  0  0  0  0  0
   -0.6093   -0.0557    1.9662 H   0  0  0  0  0  0  0  0  0  0  0  0
   -0.8054   -1.7445    1.3889 H   0  0  0  0  0  0  0  0  0  0  0  0
  1  2  1  0
  3  2  1  6
  3  4  1  0
  4  5  2  0
  5  6  1  0
  6  7  2  0
  7  8  1  0
  8  9  1  0
  8 10  2  0
  3 11  1  0
 11 12  1  0
 12 13  1  0
 13 14  1  0
 14 15  1  0
 15 16  2  0
 16 17  1  0
 17 18  2  0
 18 19  1  0
 19 20  2  0
 13 21  1  0
 21 22  1  0
 22  3  1  0
 10  4  1  0
 19 14  1  0
  1 23  1  0
  1 24  1  0
  2 25  1  0
  2 26  1  0
  5 27  1  0
  6 28  1  0
  7 29  1  0
 10 30  1  0
 11 31  1  0
 11 32  1  0
 12 33  1  0
 12 34  1  0
 13 35  1  1
 16 36  1  0
 17 37  1  0
 18 38  1  0
 21 39  1  0
 21 40  1  0
 22 41  1  0
 22 42  1  0
M  END
$$$$
