
     RDKit          3D

 54 57  0  0  0  0  0  0  0  0999 V2000
   -0.7861   -2.0745    0.1843 N   0  0  0  0  0  0  0  0  0  0  0  0
   -1.8209   -1.7157   -0.7923 C   0  0  1  0  0  0  0  0  0  0  0  0
   -1.3019   -1.9748   -2.2177 C   0  0  0  0  0  0  0  0  0  0  0  0
   -0.1025   -1.1176   -2.5139 C   0  0  0  0  0  0  0  0  0  0  0  0
    1.0486   -1.6217   -2.4088 O   0  0  0  0  0  0  0  0  0  0  0  0
   -0.2437    0.2801   -2.8298 N   0  0  0  0  0  0  0  0  0  0  0  0
   -1.4519    0.8654   -3.3867 C   0  0  0  0  0  0  0  0  0  0  0  0
   -1.0620    2.2682   -3.8332 C   0  0  0  0  0  0  0  0  0  0  0  0
    0.2462    2.5898   -3.1153 C   0  0  0  0  0  0  0  0  0  0  0  0
    0.8464    1.2387   -2.7197 C   0  0  1  0  0  0  0  0  0  0  0  0
    1.3855    1.2707   -1.3184 C   0  0  0  0  0  0  0  0  0  0  0  0
    2.6972    1.3255   -1.0180 N   0  0  0  0  0  0  0  0  0  0  0  0
    2.6492    1.3424    0.3304 C   0  0  0  0  0  0  0  0  0  0  0  0
    3.8150    1.3940    1.1615 N   0  0  0  0  0  0  0  0  0  0  0  0
    3.7626    1.3947    2.6111 C   0  0  0  0  0  0  0  0  0  0  0  0
    5.2119    1.2935    3.0698 C   0  0  0  0  0  0  0  0  0  0  0  0
    6.0652    1.6450    1.8516 C   0  0  0  0  0  0  0  0  0  0  0  0
    5.1666    1.4463    0.6376 C   0  0  0  0  0  0  0  0  0  0  0  0
    1.3928    1.3052    0.8148 N   0  0  0  0  0  0  0  0  0  0  0  0
    0.6386    1.2635   -0.2401 O   0  0  0  0  0  0  0  0  0  0  0  0
   -3.1292   -2.5004   -0.5463 C   0  0  0  0  0  0  0  0  0  0  0  0
   -3.7540   -2.1471    0.7809 C   0  0  0  0  0  0  0  0  0  0  0  0
   -3.5638   -2.9828    1.8948 C   0  0  0  0  0  0  0  0  0  0  0  0
   -4.1176   -2.6458    3.1338 C   0  0  0  0  0  0  0  0  0  0  0  0
   -3.9289   -3.4596    4.2020 F   0  0  0  0  0  0  0  0  0  0  0  0
   -4.8615   -1.4701    3.2716 C   0  0  0  0  0  0  0  0  0  0  0  0
   -5.3982   -1.1416    4.4728 F   0  0  0  0  0  0  0  0  0  0  0  0
   -5.0500   -0.6296    2.1710 C   0  0  0  0  0  0  0  0  0  0  0  0
   -4.4980   -0.9615    0.9295 C   0  0  0  0  0  0  0  0  0  0  0  0
   -4.6871   -0.1278   -0.1249 F   0  0  0  0  0  0  0  0  0  0  0  0
   -1.0616   -1.7118    1.1254 H   0  0  0  0  0  0  0  0  0  0  0  0
   -0.7101   -3.1159    0.2507 H   0  0  0  0  0  0  0  0  0  0  0  0
   -2.0394   -0.6283   -0.6962 H   0  0  0  0  0  0  0  0  0  0  0  0
   -1.0297   -3.0477   -2.3288 H   0  0  0  0  0  0  0  0  0  0  0  0
   -2.1004   -1.7626   -2.9595 H   0  0  0  0  0  0  0  0  0  0  0  0
   -2.2419    0.9106   -2.6068 H   0  0  0  0  0  0  0  0  0  0  0  0
   -1.8082    0.2716   -4.2563 H   0  0  0  0  0  0  0  0  0  0  0  0
   -0.8915    2.2754   -4.9325 H   0  0  0  0  0  0  0  0  0  0  0  0
   -1.8543    3.0069   -3.5832 H   0  0  0  0  0  0  0  0  0  0  0  0
    0.9368    3.1561   -3.7776 H   0  0  0  0  0  0  0  0  0  0  0  0
    0.0195    3.2129   -2.2207 H   0  0  0  0  0  0  0  0  0  0  0  0
    1.6533    0.9580   -3.4326 H   0  0  0  0  0  0  0  0  0  0  0  0
    3.1738    0.5264    2.9790 H   0  0  0  0  0  0  0  0  0  0  0  0
    3.3040    2.3426    2.9670 H   0  0  0  0  0  0  0  0  0  0  0  0
    5.4308    0.2499    3.3862 H   0  0  0  0  0  0  0  0  0  0  0  0
    5.4165    1.9818    3.9184 H   0  0  0  0  0  0  0  0  0  0  0  0
    6.3777    2.7107    1.9137 H   0  0  0  0  0  0  0  0  0  0  0  0
    6.9708    1.0028    1.7939 H   0  0  0  0  0  0  0  0  0  0  0  0
    5.2751    2.2941   -0.0733 H   0  0  0  0  0  0  0  0  0  0  0  0
    5.4052    0.4888    0.1257 H   0  0  0  0  0  0  0  0  0  0  0  0
   -2.9314   -3.5937   -0.6023 H   0  0  0  0  0  0  0  0  0  0  0  0
   -3.8584   -2.2709   -1.3541 H   0  0  0  0  0  0  0  0  0  0  0  0
   -2.9825   -3.8922    1.8042 H   0  0  0  0  0  0  0  0  0  0  0  0
   -5.6231    0.2822    2.2805 H   0  0  0  0  0  0  0  0  0  0  0  0
  1  2  1  0
  2  3  1  0
  3  4  1  0
  4  5  2  0
  4  6  1  0
  6  7  1  0
  7  8  1  0
  8  9  1  0
  9 10  1  0
 10 11  1  0
 11 12  2  0
 12 13  1  0
 13 14  1  0
 14 15  1  0
 15 16  1  0
 16 17  1  0
 17 18  1  0
 13 19  2  0
 19 20  1  0
  2 21  1  0
 21 22  1  0
 22 23  2  0
 23 24  1  0
 24 25  1  0
 24 26  2  0
 26 27  1  0
 26 28  1  0
 28 29  2  0
 29 30  1  0
 10  6  1  0
 20 11  1  0
 29 22  1  0
 18 14  1  0
  1 31  1  0
  1 32  1  0
  2 33  1  6
  3 34  1  0
  3 35  1  0
  7 36  1  0
  7 37  1  0
  8 38  1  0
  8 39  1  0
  9 40  1  0
  9 41  1  0
 10 42  1  6
 15 43  1  0
 15 44  1  0
 16 45  1  0
 16 46  1  0
 17 47  1  0
 17 48  1  0
 18 49  1  0
 18 50  1  0
 21 51  1  0
 21 52  1  0
 23 53  1  0
 28 54  1  0
M  END
$$$$
