
     RDKit          3D

 56 57  0  0  0  0  0  0  0  0999 V2000
   -1.4781    1.5390   -2.7784 C   0  0  0  0  0  0  0  0  0  0  0  0
   -1.8062    0.6560   -1.5668 C   0  0  0  0  0  0  0  0  0  0  0  0
   -0.5834   -0.0968   -1.1134 C   0  0  0  0  0  0  0  0  0  0  0  0
    0.6077    0.4734   -0.8446 N   0  0  0  0  0  0  0  0  0  0  0  0
    1.3375   -0.5969   -0.4634 C   0  0  0  0  0  0  0  0  0  0  0  0
    2.7546   -0.5206   -0.0494 C   0  0  0  0  0  0  0  0  0  0  0  0
    3.4496   -1.6810    0.3331 C   0  0  0  0  0  0  0  0  0  0  0  0
    4.7896   -1.6068    0.7246 C   0  0  0  0  0  0  0  0  0  0  0  0
    5.4520   -0.3730    0.7443 C   0  0  0  0  0  0  0  0  0  0  0  0
    7.1451   -0.2837    1.2206 S   0  0  0  0  0  0  0  0  0  0  0  0
    7.4241    1.0511    1.8533 O   0  0  0  0  0  0  0  0  0  0  0  0
    7.4476   -1.3628    2.2225 O   0  0  0  0  0  0  0  0  0  0  0  0
    8.1807   -0.4928   -0.2122 C   0  0  0  0  0  0  0  0  0  0  0  0
    7.9315   -1.7241   -0.7881 F   0  0  0  0  0  0  0  0  0  0  0  0
    9.5090   -0.4226    0.1625 F   0  0  0  0  0  0  0  0  0  0  0  0
    7.9099    0.5052   -1.1290 F   0  0  0  0  0  0  0  0  0  0  0  0
    4.7669    0.7855    0.3572 C   0  0  0  0  0  0  0  0  0  0  0  0
    3.4269    0.7139   -0.0347 C   0  0  0  0  0  0  0  0  0  0  0  0
    0.6252   -1.7414   -0.4988 N   0  0  0  0  0  0  0  0  0  0  0  0
   -0.5563   -1.3894   -0.9037 O   0  0  0  0  0  0  0  0  0  0  0  0
   -2.4544    1.4610   -0.4075 C   0  0  2  0  0  0  0  0  0  0  0  0
   -1.4932    2.3903    0.1962 N   0  0  0  0  0  0  0  0  0  0  0  0
   -2.9797    0.5105    0.6553 C   0  0  0  0  0  0  0  0  0  0  0  0
   -2.1448    0.1661    1.6754 F   0  0  0  0  0  0  0  0  0  0  0  0
   -4.2049   -0.0542    0.6008 C   0  0  0  0  0  0  0  0  0  0  0  0
   -4.6781   -1.0404    1.6133 C   0  0  0  0  0  0  0  0  0  0  0  0
   -5.9907   -1.5696    1.0499 C   0  0  0  0  0  0  0  0  0  0  0  0
   -6.4695   -0.5452    0.0227 C   0  0  0  0  0  0  0  0  0  0  0  0
   -5.2334    0.2110   -0.4505 C   0  0  0  0  0  0  0  0  0  0  0  0
    0.8350    0.8108   -1.2664 O   0  0  0  0  0  0  0  0  0  0  0  0
    0.4768    0.0928   -0.2947 C   0  0  0  0  0  0  0  0  0  0  0  0
    1.4197   -0.6691    0.3890 O   0  0  0  0  0  0  0  0  0  0  0  0
   -0.9467    0.1054    0.1597 C   0  0  0  0  0  0  0  0  0  0  0  0
   -1.2315   -1.0558    0.8547 F   0  0  0  0  0  0  0  0  0  0  0  0
   -1.7908    0.1948   -0.9324 F   0  0  0  0  0  0  0  0  0  0  0  0
   -1.1542    1.1929    0.9869 F   0  0  0  0  0  0  0  0  0  0  0  0
   -0.6766    2.2704   -2.5436 H   0  0  0  0  0  0  0  0  0  0  0  0
   -2.3843    2.0901   -3.1085 H   0  0  0  0  0  0  0  0  0  0  0  0
   -1.1333    0.9054   -3.6237 H   0  0  0  0  0  0  0  0  0  0  0  0
   -2.5461   -0.0946   -1.9212 H   0  0  0  0  0  0  0  0  0  0  0  0
    2.9591   -2.6464    0.3280 H   0  0  0  0  0  0  0  0  0  0  0  0
    5.3102   -2.5124    1.0090 H   0  0  0  0  0  0  0  0  0  0  0  0
    5.2697    1.7442    0.3553 H   0  0  0  0  0  0  0  0  0  0  0  0
    2.9185    1.6240   -0.3277 H   0  0  0  0  0  0  0  0  0  0  0  0
   -3.2997    2.0594   -0.8140 H   0  0  0  0  0  0  0  0  0  0  0  0
   -1.9565    2.8672    1.0043 H   0  0  0  0  0  0  0  0  0  0  0  0
   -1.2860    3.1511   -0.4898 H   0  0  0  0  0  0  0  0  0  0  0  0
   -3.9465   -1.8683    1.7384 H   0  0  0  0  0  0  0  0  0  0  0  0
   -4.8456   -0.5280    2.5854 H   0  0  0  0  0  0  0  0  0  0  0  0
   -5.8105   -2.5426    0.5412 H   0  0  0  0  0  0  0  0  0  0  0  0
   -6.7443   -1.7167    1.8538 H   0  0  0  0  0  0  0  0  0  0  0  0
   -6.9891   -1.0400   -0.8264 H   0  0  0  0  0  0  0  0  0  0  0  0
   -7.1740    0.1632    0.5125 H   0  0  0  0  0  0  0  0  0  0  0  0
   -5.4606    1.2958   -0.5296 H   0  0  0  0  0  0  0  0  0  0  0  0
   -4.8896   -0.1835   -1.4300 H   0  0  0  0  0  0  0  0  0  0  0  0
    2.3916   -0.6718    0.1032 H   0  0  0  0  0  0  0  0  0  0  0  0
  1  2  1  0
  2  3  1  0
  3  4  2  0
  4  5  1  0
  5  6  1  0
  6  7  2  0
  7  8  1  0
  8  9  2  0
  9 10  1  0
 10 11  2  0
 10 12  2  0
 10 13  1  0
 13 14  1  0
 13 15  1  0
 13 16  1  0
  9 17  1  0
 17 18  2  0
  5 19  2  0
 19 20  1  0
  2 21  1  0
 21 22  1  0
 21 23  1  0
 23 24  1  0
 23 25  2  3
 25 26  1  0
 26 27  1  0
 27 28  1  0
 28 29  1  0
 30 31  2  0
 31 32  1  0
 31 33  1  0
 33 34  1  0
 33 35  1  0
 33 36  1  0
 20  3  1  0
 29 25  1  0
 18  6  1  0
  1 37  1  0
  1 38  1  0
  1 39  1  0
  2 40  1  0
  7 41  1  0
  8 42  1  0
 17 43  1  0
 18 44  1  0
 21 45  1  6
 22 46  1  0
 22 47  1  0
 26 48  1  0
 26 49  1  0
 27 50  1  0
 27 51  1  0
 28 52  1  0
 28 53  1  0
 29 54  1  0
 29 55  1  0
 32 56  1  0
M  END
$$$$
