
     RDKit          3D

 55 59  0  0  0  0  0  0  0  0999 V2000
    8.4323   -2.1822    1.6098 C   0  0  0  0  0  0  0  0  0  0  0  0
    7.2575   -1.6094    0.8938 C   0  0  0  0  0  0  0  0  0  0  0  0
    7.1192   -1.6007   -0.4453 N   0  0  0  0  0  0  0  0  0  0  0  0
    5.9465   -1.0381   -0.6919 N   0  0  0  0  0  0  0  0  0  0  0  0
    5.4143   -0.7309    0.5073 C   0  0  0  0  0  0  0  0  0  0  0  0
    4.1086   -0.0847    0.6996 C   0  0  0  0  0  0  0  0  0  0  0  0
    3.7323    0.2003    1.8687 O   0  0  0  0  0  0  0  0  0  0  0  0
    3.2473    0.2931   -0.4817 C   0  0  2  0  0  0  0  0  0  0  0  0
    3.4804    1.7485   -0.8911 C   0  0  0  0  0  0  0  0  0  0  0  0
    2.3115    2.5370   -0.3038 C   0  0  2  0  0  0  0  0  0  0  0  0
    2.6834    3.0851    0.9131 F   0  0  0  0  0  0  0  0  0  0  0  0
    1.1938    1.5215   -0.0947 C   0  0  0  0  0  0  0  0  0  0  0  0
    1.8348    0.2158   -0.1321 N   0  0  0  0  0  0  0  0  0  0  0  0
    1.1395   -1.0305    0.0640 C   0  0  0  0  0  0  0  0  0  0  0  0
    1.7552   -2.1207   -0.0856 O   0  0  0  0  0  0  0  0  0  0  0  0
   -0.3172   -1.0627    0.4223 C   0  0  0  0  0  0  0  0  0  0  0  0
   -1.1176   -0.6781   -0.7507 N   0  0  0  0  0  0  0  0  0  0  0  0
   -2.5196   -0.2816   -0.4663 C   0  0  0  0  0  0  0  0  0  0  0  0
   -2.5710    1.1178    0.2170 C   0  0  0  0  0  0  0  0  0  0  0  0
   -4.0378    1.5471    0.4453 C   0  0  0  0  0  0  0  0  0  0  0  0
   -4.7665    1.6384   -0.9110 C   0  0  0  0  0  0  0  0  0  0  0  0
   -4.7414    0.2591   -1.6004 C   0  0  0  0  0  0  0  0  0  0  0  0
   -5.4524   -0.7799   -0.7082 C   0  0  0  0  0  0  0  0  0  0  0  0
   -4.7273   -0.8748    0.6506 C   0  0  0  0  0  0  0  0  0  0  0  0
   -4.7464    0.5070    1.3415 C   0  0  0  0  0  0  0  0  0  0  0  0
   -3.2641   -1.3192    0.4286 C   0  0  0  0  0  0  0  0  0  0  0  0
   -3.2777   -0.1749   -1.8235 C   0  0  0  0  0  0  0  0  0  0  0  0
    6.2136   -1.0819    1.4861 O   0  0  0  0  0  0  0  0  0  0  0  0
    9.3619   -1.9676    1.0421 H   0  0  0  0  0  0  0  0  0  0  0  0
    8.3063   -3.2803    1.7071 H   0  0  0  0  0  0  0  0  0  0  0  0
    8.5142   -1.7320    2.6211 H   0  0  0  0  0  0  0  0  0  0  0  0
    3.4534   -0.3771   -1.3457 H   0  0  0  0  0  0  0  0  0  0  0  0
    4.4607    2.1472   -0.5467 H   0  0  0  0  0  0  0  0  0  0  0  0
    3.4451    1.8246   -2.0005 H   0  0  0  0  0  0  0  0  0  0  0  0
    1.9924    3.3529   -0.9882 H   0  0  0  0  0  0  0  0  0  0  0  0
    0.4529    1.5959   -0.9193 H   0  0  0  0  0  0  0  0  0  0  0  0
    0.6905    1.6840    0.8825 H   0  0  0  0  0  0  0  0  0  0  0  0
   -0.5910   -2.0901    0.7520 H   0  0  0  0  0  0  0  0  0  0  0  0
   -0.4772   -0.3822    1.2799 H   0  0  0  0  0  0  0  0  0  0  0  0
   -1.1179   -1.4982   -1.4034 H   0  0  0  0  0  0  0  0  0  0  0  0
   -2.0580    1.1106    1.2001 H   0  0  0  0  0  0  0  0  0  0  0  0
   -2.0542    1.8712   -0.4173 H   0  0  0  0  0  0  0  0  0  0  0  0
   -4.0595    2.5408    0.9433 H   0  0  0  0  0  0  0  0  0  0  0  0
   -5.8176    1.9677   -0.7569 H   0  0  0  0  0  0  0  0  0  0  0  0
   -4.2728    2.3966   -1.5580 H   0  0  0  0  0  0  0  0  0  0  0  0
   -5.2628    0.3251   -2.5801 H   0  0  0  0  0  0  0  0  0  0  0  0
   -5.4546   -1.7734   -1.2083 H   0  0  0  0  0  0  0  0  0  0  0  0
   -6.5134   -0.4846   -0.5528 H   0  0  0  0  0  0  0  0  0  0  0  0
   -5.2459   -1.6178    1.2948 H   0  0  0  0  0  0  0  0  0  0  0  0
   -4.2374    0.4460    2.3286 H   0  0  0  0  0  0  0  0  0  0  0  0
   -5.7964    0.8219    1.5301 H   0  0  0  0  0  0  0  0  0  0  0  0
   -2.7740   -1.4107    1.4217 H   0  0  0  0  0  0  0  0  0  0  0  0
   -3.2424   -2.3231   -0.0500 H   0  0  0  0  0  0  0  0  0  0  0  0
   -2.7682    0.5584   -2.4875 H   0  0  0  0  0  0  0  0  0  0  0  0
   -3.2653   -1.1551   -2.3500 H   0  0  0  0  0  0  0  0  0  0  0  0
  1  2  1  0
  2  3  2  0
  3  4  1  0
  4  5  2  0
  5  6  1  0
  6  7  2  0
  6  8  1  0
  8  9  1  0
  9 10  1  0
 10 11  1  0
 10 12  1  0
 12 13  1  0
 13 14  1  0
 14 15  2  0
 14 16  1  0
 16 17  1  0
 17 18  1  0
 18 19  1  0
 19 20  1  0
 20 21  1  0
 21 22  1  0
 22 23  1  0
 23 24  1  0
 24 25  1  0
 24 26  1  0
 22 27  1  0
  5 28  1  0
 28  2  1  0
 13  8  1  0
 26 18  1  0
 27 18  1  0
 25 20  1  0
  1 29  1  0
  1 30  1  0
  1 31  1  0
  8 32  1  6
  9 33  1  0
  9 34  1  0
 10 35  1  6
 12 36  1  0
 12 37  1  0
 16 38  1  0
 16 39  1  0
 17 40  1  0
 19 41  1  0
 19 42  1  0
 20 43  1  0
 21 44  1  0
 21 45  1  0
 22 46  1  0
 23 47  1  0
 23 48  1  0
 24 49  1  0
 25 50  1  0
 25 51  1  0
 26 52  1  0
 26 53  1  0
 27 54  1  0
 27 55  1  0
M  END
$$$$
