
     RDKit          3D

 59 62  0  0  0  0  0  0  0  0999 V2000
    0.6878    0.0000    0.0000 Cl  0  0  0  0  0  0  0  0  0  0  0  0
    3.9339    2.9532    0.5060 C   0  0  0  0  0  0  0  0  0  0  0  0
    3.0947    1.7424    0.4066 N   0  0  0  0  0  0  0  0  0  0  0  0
    1.7675    1.8028    0.7891 C   0  0  0  0  0  0  0  0  0  0  0  0
    1.2668    2.8716    1.2328 O   0  0  0  0  0  0  0  0  0  0  0  0
    0.9790    0.6540    0.6880 C   0  0  0  0  0  0  0  0  0  0  0  0
    1.4976   -0.5134    0.2265 C   0  0  0  0  0  0  0  0  0  0  0  0
    0.5553   -1.4755    0.2007 N   0  0  0  0  0  0  0  0  0  0  0  0
   -0.5432   -0.8359    0.6722 C   0  0  0  0  0  0  0  0  0  0  0  0
   -1.8117   -1.4907    0.8088 N   0  0  0  0  0  0  0  0  0  0  0  0
   -2.3831   -1.6926    2.1457 C   0  0  0  0  0  0  0  0  0  0  0  0
   -3.9117   -1.5045    2.1333 C   0  0  0  0  0  0  0  0  0  0  0  0
   -4.5741   -1.8902    0.7945 C   0  0  0  0  0  0  0  0  0  0  0  0
   -3.7134   -2.8710   -0.0151 C   0  0  1  0  0  0  0  0  0  0  0  0
   -4.4177   -3.2754   -1.2337 N   0  0  0  0  0  0  0  0  0  0  0  0
   -2.3524   -2.2221   -0.3447 C   0  0  0  0  0  0  0  0  0  0  0  0
   -0.3277    0.4727    0.9735 N   0  0  0  0  0  0  0  0  0  0  0  0
   -1.3244    1.4821    1.3559 C   0  0  0  0  0  0  0  0  0  0  0  0
   -1.5984    2.4447    0.2186 C   0  0  0  0  0  0  0  0  0  0  0  0
   -1.7970    1.9391   -1.0807 C   0  0  0  0  0  0  0  0  0  0  0  0
   -2.0757    2.7985   -2.1452 C   0  0  0  0  0  0  0  0  0  0  0  0
   -2.1799    4.1717   -1.9265 C   0  0  0  0  0  0  0  0  0  0  0  0
   -2.0167    4.6879   -0.6402 C   0  0  0  0  0  0  0  0  0  0  0  0
   -1.7375    3.8366    0.4365 C   0  0  0  0  0  0  0  0  0  0  0  0
   -1.5871    4.5602    2.0354 Cl  0  0  0  0  0  0  0  0  0  0  0  0
    2.8274   -0.6172   -0.1666 C   0  0  0  0  0  0  0  0  0  0  0  0
    3.3581   -1.8242   -0.6464 C   0  0  0  0  0  0  0  0  0  0  0  0
    4.7032   -1.9035   -1.0380 C   0  0  0  0  0  0  0  0  0  0  0  0
    5.2686   -3.1743   -1.5445 C   0  0  0  0  0  0  0  0  0  0  0  0
    4.5476   -4.2051   -1.6313 O   0  0  0  0  0  0  0  0  0  0  0  0
    6.6047   -3.2437   -1.9308 O   0  0  0  0  0  0  0  0  0  0  0  0
    5.5091   -0.7598   -0.9434 C   0  0  0  0  0  0  0  0  0  0  0  0
    4.9895    0.4470   -0.4679 C   0  0  0  0  0  0  0  0  0  0  0  0
    3.6370    0.5506   -0.0684 C   0  0  0  0  0  0  0  0  0  0  0  0
   -0.6878    0.0000    0.0000 H   0  0  0  0  0  0  0  0  0  0  0  0
    4.7808    2.7695    1.2009 H   0  0  0  0  0  0  0  0  0  0  0  0
    3.3823    3.8353    0.8913 H   0  0  0  0  0  0  0  0  0  0  0  0
    4.3216    3.2275   -0.4982 H   0  0  0  0  0  0  0  0  0  0  0  0
   -2.1430   -2.7256    2.4796 H   0  0  0  0  0  0  0  0  0  0  0  0
   -1.9290   -0.9976    2.8854 H   0  0  0  0  0  0  0  0  0  0  0  0
   -4.3483   -2.1192    2.9505 H   0  0  0  0  0  0  0  0  0  0  0  0
   -4.1551   -0.4438    2.3596 H   0  0  0  0  0  0  0  0  0  0  0  0
   -5.5704   -2.3418    0.9938 H   0  0  0  0  0  0  0  0  0  0  0  0
   -4.7389   -0.9688    0.1922 H   0  0  0  0  0  0  0  0  0  0  0  0
   -3.5398   -3.7797    0.6045 H   0  0  0  0  0  0  0  0  0  0  0  0
   -4.5467   -2.4439   -1.8557 H   0  0  0  0  0  0  0  0  0  0  0  0
   -3.8212   -3.9621   -1.7504 H   0  0  0  0  0  0  0  0  0  0  0  0
   -1.6351   -3.0107   -0.6599 H   0  0  0  0  0  0  0  0  0  0  0  0
   -2.4756   -1.5086   -1.1881 H   0  0  0  0  0  0  0  0  0  0  0  0
   -0.9625    1.9993    2.2664 H   0  0  0  0  0  0  0  0  0  0  0  0
   -2.2848    1.0026    1.6262 H   0  0  0  0  0  0  0  0  0  0  0  0
   -1.7336    0.8770   -1.2747 H   0  0  0  0  0  0  0  0  0  0  0  0
   -2.2156    2.3979   -3.1410 H   0  0  0  0  0  0  0  0  0  0  0  0
   -2.3977    4.8361   -2.7527 H   0  0  0  0  0  0  0  0  0  0  0  0
   -2.1152    5.7540   -0.4790 H   0  0  0  0  0  0  0  0  0  0  0  0
    2.7239   -2.7004   -0.7140 H   0  0  0  0  0  0  0  0  0  0  0  0
    7.0016   -4.1084   -2.2788 H   0  0  0  0  0  0  0  0  0  0  0  0
    6.5504   -0.7946   -1.2388 H   0  0  0  0  0  0  0  0  0  0  0  0
    5.6637    1.2901   -0.4201 H   0  0  0  0  0  0  0  0  0  0  0  0
  2  3  1  0
  3  4  1  0
  4  5  2  0
  4  6  1  0
  6  7  2  0
  7  8  1  0
  8  9  2  0
  9 10  1  0
 10 11  1  0
 11 12  1  0
 12 13  1  0
 13 14  1  0
 14 15  1  0
 14 16  1  0
  9 17  1  0
 17 18  1  0
 18 19  1  0
 19 20  2  0
 20 21  1  0
 21 22  2  0
 22 23  1  0
 23 24  2  0
 24 25  1  0
  7 26  1  0
 26 27  2  0
 27 28  1  0
 28 29  1  0
 29 30  2  0
 29 31  1  0
 28 32  2  0
 32 33  1  0
 33 34  2  0
 34  3  1  0
 17  6  1  0
 24 19  1  0
 34 26  1  0
 16 10  1  0
  1 35  1  0
  2 36  1  0
  2 37  1  0
  2 38  1  0
 11 39  1  0
 11 40  1  0
 12 41  1  0
 12 42  1  0
 13 43  1  0
 13 44  1  0
 14 45  1  1
 15 46  1  0
 15 47  1  0
 16 48  1  0
 16 49  1  0
 18 50  1  0
 18 51  1  0
 20 52  1  0
 21 53  1  0
 22 54  1  0
 23 55  1  0
 27 56  1  0
 31 57  1  0
 32 58  1  0
 33 59  1  0
M  END
$$$$
