
     RDKit          3D

 30 31  0  0  0  0  0  0  0  0999 V2000
   -1.6087   -2.7354    0.5561 N   0  0  0  0  0  0  0  0  0  0  0  0
   -0.6977   -1.6960    0.0688 C   0  0  2  0  0  0  0  0  0  0  0  0
    0.5275   -1.5858    0.9978 C   0  0  0  0  0  0  0  0  0  0  0  0
    1.5635   -0.6369    0.4426 C   0  0  0  0  0  0  0  0  0  0  0  0
    2.4169   -1.0637   -0.5895 C   0  0  0  0  0  0  0  0  0  0  0  0
    3.3519   -0.1840   -1.1431 C   0  0  0  0  0  0  0  0  0  0  0  0
    4.1714   -0.6044   -2.1380 F   0  0  0  0  0  0  0  0  0  0  0  0
    3.4391    1.1296   -0.6753 C   0  0  0  0  0  0  0  0  0  0  0  0
    2.5916    1.5657    0.3460 C   0  0  0  0  0  0  0  0  0  0  0  0
    1.6544    0.6906    0.9049 C   0  0  0  0  0  0  0  0  0  0  0  0
    0.8386    1.1403    1.8917 F   0  0  0  0  0  0  0  0  0  0  0  0
   -1.4130   -0.3621   -0.0851 C   0  0  0  0  0  0  0  0  0  0  0  0
   -2.0496    0.2546    1.0092 C   0  0  0  0  0  0  0  0  0  0  0  0
   -2.6733    1.4963    0.8573 C   0  0  0  0  0  0  0  0  0  0  0  0
   -2.6662    2.1383   -0.3840 C   0  0  0  0  0  0  0  0  0  0  0  0
   -3.5144    3.8372   -0.5869 Br  0  0  0  0  0  0  0  0  0  0  0  0
   -2.0325    1.5378   -1.4754 C   0  0  0  0  0  0  0  0  0  0  0  0
   -1.4076    0.2961   -1.3281 C   0  0  0  0  0  0  0  0  0  0  0  0
   -1.9567   -2.4912    1.5112 H   0  0  0  0  0  0  0  0  0  0  0  0
   -2.4376   -2.7834   -0.0806 H   0  0  0  0  0  0  0  0  0  0  0  0
   -0.3280   -2.0324   -0.9262 H   0  0  0  0  0  0  0  0  0  0  0  0
    0.2129   -1.2723    2.0166 H   0  0  0  0  0  0  0  0  0  0  0  0
    0.9872   -2.5924    1.1094 H   0  0  0  0  0  0  0  0  0  0  0  0
    2.3526   -2.0768   -0.9672 H   0  0  0  0  0  0  0  0  0  0  0  0
    4.1617    1.8113   -1.1051 H   0  0  0  0  0  0  0  0  0  0  0  0
    2.6598    2.5852    0.7033 H   0  0  0  0  0  0  0  0  0  0  0  0
   -2.0527   -0.2144    1.9841 H   0  0  0  0  0  0  0  0  0  0  0  0
   -3.1571    1.9613    1.7067 H   0  0  0  0  0  0  0  0  0  0  0  0
   -2.0203    2.0340   -2.4373 H   0  0  0  0  0  0  0  0  0  0  0  0
   -0.9138   -0.1472   -2.1838 H   0  0  0  0  0  0  0  0  0  0  0  0
  1  2  1  0
  2  3  1  0
  3  4  1  0
  4  5  2  0
  5  6  1  0
  6  7  1  0
  6  8  2  0
  8  9  1  0
  9 10  2  0
 10 11  1  0
  2 12  1  0
 12 13  2  0
 13 14  1  0
 14 15  2  0
 15 16  1  0
 15 17  1  0
 17 18  2  0
 10  4  1  0
 18 12  1  0
  1 19  1  0
  1 20  1  0
  2 21  1  6
  3 22  1  0
  3 23  1  0
  5 24  1  0
  8 25  1  0
  9 26  1  0
 13 27  1  0
 14 28  1  0
 17 29  1  0
 18 30  1  0
M  END
$$$$
