
     RDKit          3D

 55 58  0  0  0  0  0  0  0  0999 V2000
    7.0512   -1.0134    0.0017 C   0  0  0  0  0  0  0  0  0  0  0  0
    6.1339   -0.4248   -0.9151 O   0  0  0  0  0  0  0  0  0  0  0  0
    4.7708   -0.2045   -0.6612 C   0  0  0  0  0  0  0  0  0  0  0  0
    4.1977   -0.5609    0.5745 C   0  0  0  0  0  0  0  0  0  0  0  0
    2.8353   -0.3530    0.8187 C   0  0  0  0  0  0  0  0  0  0  0  0
    2.0181    0.2273   -0.1553 C   0  0  0  0  0  0  0  0  0  0  0  0
    2.5925    0.6065   -1.3848 C   0  0  0  0  0  0  0  0  0  0  0  0
    3.9507    0.3901   -1.6526 C   0  0  0  0  0  0  0  0  0  0  0  0
    4.4136    0.7935   -2.9190 O   0  0  0  0  0  0  0  0  0  0  0  0
    5.7438    0.6743   -3.4112 C   0  0  0  0  0  0  0  0  0  0  0  0
    0.5556    0.4533    0.2198 C   0  0  0  0  0  0  0  0  0  0  0  0
   -0.3228    0.8409   -1.0023 C   0  0  0  0  0  0  0  0  0  0  0  0
   -1.8274    0.9312   -0.6703 C   0  0  0  0  0  0  0  0  0  0  0  0
   -2.1488    2.1631    0.0591 N   0  0  0  0  0  0  0  0  0  0  0  0
   -2.2734   -0.3332    0.0894 C   0  0  0  0  0  0  0  0  0  0  0  0
   -3.7186   -0.3163    0.4186 N   0  0  0  0  0  0  0  0  0  0  0  0
   -4.6151   -1.2851   -0.2342 C   0  0  0  0  0  0  0  0  0  0  0  0
   -5.9129   -0.6128   -0.6887 C   0  0  0  0  0  0  0  0  0  0  0  0
   -6.5992    0.0653    0.4991 C   0  0  0  0  0  0  0  0  0  0  0  0
   -5.6982    1.1398    1.1118 C   0  0  0  0  0  0  0  0  0  0  0  0
   -4.3082    0.6216    1.3481 C   0  0  0  0  0  0  0  0  0  0  0  0
   -3.6518    1.0657    2.3265 O   0  0  0  0  0  0  0  0  0  0  0  0
   -1.3791   -0.5973    1.3088 C   0  0  0  0  0  0  0  0  0  0  0  0
    0.0227   -0.7735    0.8769 N   0  0  0  0  0  0  0  0  0  0  0  0
    0.8453   -1.3021    2.0048 C   0  0  0  0  0  0  0  0  0  0  0  0
    2.2358   -0.6605    2.1562 C   0  0  0  0  0  0  0  0  0  0  0  0
    6.7267   -2.0438    0.2588 H   0  0  0  0  0  0  0  0  0  0  0  0
    8.0526   -1.0653   -0.4724 H   0  0  0  0  0  0  0  0  0  0  0  0
    7.1255   -0.3928    0.9195 H   0  0  0  0  0  0  0  0  0  0  0  0
    4.8055   -0.9963    1.3559 H   0  0  0  0  0  0  0  0  0  0  0  0
    2.0012    1.0734   -2.1586 H   0  0  0  0  0  0  0  0  0  0  0  0
    5.7820    1.0816   -4.4421 H   0  0  0  0  0  0  0  0  0  0  0  0
    6.4418    1.2635   -2.7801 H   0  0  0  0  0  0  0  0  0  0  0  0
    6.0458   -0.3934   -3.4493 H   0  0  0  0  0  0  0  0  0  0  0  0
    0.5367    1.2979    0.9441 H   0  0  0  0  0  0  0  0  0  0  0  0
    0.0057    1.8218   -1.4091 H   0  0  0  0  0  0  0  0  0  0  0  0
   -0.1909    0.0749   -1.7988 H   0  0  0  0  0  0  0  0  0  0  0  0
   -2.3863    0.9536   -1.6332 H   0  0  0  0  0  0  0  0  0  0  0  0
   -1.9716    2.9797   -0.5699 H   0  0  0  0  0  0  0  0  0  0  0  0
   -1.5246    2.2729    0.8886 H   0  0  0  0  0  0  0  0  0  0  0  0
   -2.0771   -1.1864   -0.5996 H   0  0  0  0  0  0  0  0  0  0  0  0
   -4.1357   -1.7504   -1.1221 H   0  0  0  0  0  0  0  0  0  0  0  0
   -4.8530   -2.0981    0.4857 H   0  0  0  0  0  0  0  0  0  0  0  0
   -5.6898    0.1389   -1.4776 H   0  0  0  0  0  0  0  0  0  0  0  0
   -6.5934   -1.3786   -1.1194 H   0  0  0  0  0  0  0  0  0  0  0  0
   -6.8502   -0.6959    1.2706 H   0  0  0  0  0  0  0  0  0  0  0  0
   -7.5484    0.5328    0.1592 H   0  0  0  0  0  0  0  0  0  0  0  0
   -5.6373    2.0090    0.4221 H   0  0  0  0  0  0  0  0  0  0  0  0
   -6.1441    1.4872    2.0690 H   0  0  0  0  0  0  0  0  0  0  0  0
   -1.7427   -1.5291    1.7980 H   0  0  0  0  0  0  0  0  0  0  0  0
   -1.4348    0.2247    2.0513 H   0  0  0  0  0  0  0  0  0  0  0  0
    0.9848   -2.3914    1.8352 H   0  0  0  0  0  0  0  0  0  0  0  0
    0.3281   -1.1999    2.9867 H   0  0  0  0  0  0  0  0  0  0  0  0
    2.1432    0.2893    2.7264 H   0  0  0  0  0  0  0  0  0  0  0  0
    2.8890   -1.3441    2.7416 H   0  0  0  0  0  0  0  0  0  0  0  0
  1  2  1  0
  2  3  1  0
  3  4  2  0
  4  5  1  0
  5  6  2  0
  6  7  1  0
  7  8  2  0
  8  9  1  0
  9 10  1  0
  6 11  1  0
 11 12  1  0
 12 13  1  0
 13 14  1  0
 13 15  1  0
 15 16  1  0
 16 17  1  0
 17 18  1  0
 18 19  1  0
 19 20  1  0
 20 21  1  0
 21 22  2  0
 15 23  1  0
 23 24  1  0
 24 25  1  0
 25 26  1  0
  8  3  1  0
 24 11  1  0
 26  5  1  0
 21 16  1  0
  1 27  1  0
  1 28  1  0
  1 29  1  0
  4 30  1  0
  7 31  1  0
 10 32  1  0
 10 33  1  0
 10 34  1  0
 11 35  1  0
 12 36  1  0
 12 37  1  0
 13 38  1  0
 14 39  1  0
 14 40  1  0
 15 41  1  0
 17 42  1  0
 17 43  1  0
 18 44  1  0
 18 45  1  0
 19 46  1  0
 19 47  1  0
 20 48  1  0
 20 49  1  0
 23 50  1  0
 23 51  1  0
 25 52  1  0
 25 53  1  0
 26 54  1  0
 26 55  1  0
M  END
$$$$
