
     RDKit          3D

 59 62  0  0  0  0  0  0  0  0999 V2000
    0.6878    0.0000    0.0000 Cl  0  0  0  0  0  0  0  0  0  0  0  0
    4.6088    1.9496    0.8799 C   0  0  0  0  0  0  0  0  0  0  0  0
    3.5552    0.9477    0.6162 N   0  0  0  0  0  0  0  0  0  0  0  0
    2.2616    1.2122    1.0166 C   0  0  0  0  0  0  0  0  0  0  0  0
    1.9712    2.2879    1.6069 O   0  0  0  0  0  0  0  0  0  0  0  0
    1.2664    0.2710    0.7599 C   0  0  0  0  0  0  0  0  0  0  0  0
    1.5543   -0.9094    0.1453 C   0  0  0  0  0  0  0  0  0  0  0  0
    0.4216   -1.6106   -0.0549 N   0  0  0  0  0  0  0  0  0  0  0  0
   -0.5381   -0.8241    0.4855 C   0  0  0  0  0  0  0  0  0  0  0  0
   -1.9236   -1.1941    0.4844 N   0  0  0  0  0  0  0  0  0  0  0  0
   -2.6080   -1.4439    1.7586 C   0  0  0  0  0  0  0  0  0  0  0  0
   -4.0581   -0.9263    1.7229 C   0  0  0  0  0  0  0  0  0  0  0  0
   -4.7011   -0.9780    0.3214 C   0  0  0  0  0  0  0  0  0  0  0  0
   -4.0176   -2.0070   -0.5909 C   0  0  1  0  0  0  0  0  0  0  0  0
   -4.7126   -2.0831   -1.8776 N   0  0  0  0  0  0  0  0  0  0  0  0
   -2.5319   -1.6334   -0.7786 C   0  0  0  0  0  0  0  0  0  0  0  0
   -0.0632    0.3450    0.9869 N   0  0  0  0  0  0  0  0  0  0  0  0
   -0.8422    1.4909    1.4769 C   0  0  0  0  0  0  0  0  0  0  0  0
   -0.8421    2.6289    0.4763 C   0  0  0  0  0  0  0  0  0  0  0  0
   -1.0589    2.3508   -0.8873 C   0  0  0  0  0  0  0  0  0  0  0  0
   -1.0890    3.3812   -1.8291 C   0  0  0  0  0  0  0  0  0  0  0  0
   -0.9235    4.7047   -1.4230 C   0  0  0  0  0  0  0  0  0  0  0  0
   -0.7386    5.0024   -0.0722 C   0  0  0  0  0  0  0  0  0  0  0  0
   -0.7071    3.9782    0.8829 C   0  0  0  0  0  0  0  0  0  0  0  0
   -0.5116    4.4387    2.5717 Cl  0  0  0  0  0  0  0  0  0  0  0  0
    2.8560   -1.2371   -0.2607 C   0  0  0  0  0  0  0  0  0  0  0  0
    3.1919   -2.4630   -0.9019 C   0  0  0  0  0  0  0  0  0  0  0  0
    2.2538   -3.5968   -1.0309 C   0  0  0  0  0  0  0  0  0  0  0  0
    2.1269   -4.1865   -2.1377 O   0  0  0  0  0  0  0  0  0  0  0  0
    1.5631   -4.0658    0.0830 O   0  0  0  0  0  0  0  0  0  0  0  0
    4.4911   -2.6464   -1.3920 C   0  0  0  0  0  0  0  0  0  0  0  0
    5.4637   -1.6706   -1.2128 C   0  0  0  0  0  0  0  0  0  0  0  0
    5.1654   -0.4911   -0.5371 C   0  0  0  0  0  0  0  0  0  0  0  0
    3.8632   -0.2398   -0.0443 C   0  0  0  0  0  0  0  0  0  0  0  0
   -0.6878    0.0000    0.0000 H   0  0  0  0  0  0  0  0  0  0  0  0
    4.2533    2.8084    1.4858 H   0  0  0  0  0  0  0  0  0  0  0  0
    5.4399    1.4850    1.4522 H   0  0  0  0  0  0  0  0  0  0  0  0
    4.9902    2.3571   -0.0805 H   0  0  0  0  0  0  0  0  0  0  0  0
   -2.0650   -0.9713    2.6059 H   0  0  0  0  0  0  0  0  0  0  0  0
   -2.6139   -2.5396    1.9471 H   0  0  0  0  0  0  0  0  0  0  0  0
   -4.6657   -1.5329    2.4294 H   0  0  0  0  0  0  0  0  0  0  0  0
   -4.0847    0.1227    2.0895 H   0  0  0  0  0  0  0  0  0  0  0  0
   -5.7809   -1.2239    0.4212 H   0  0  0  0  0  0  0  0  0  0  0  0
   -4.6292    0.0285   -0.1485 H   0  0  0  0  0  0  0  0  0  0  0  0
   -4.0799   -3.0055   -0.1020 H   0  0  0  0  0  0  0  0  0  0  0  0
   -4.6231   -1.1686   -2.3783 H   0  0  0  0  0  0  0  0  0  0  0  0
   -4.2431   -2.8088   -2.4669 H   0  0  0  0  0  0  0  0  0  0  0  0
   -1.9789   -2.5118   -1.1770 H   0  0  0  0  0  0  0  0  0  0  0  0
   -2.4471   -0.8068   -1.5169 H   0  0  0  0  0  0  0  0  0  0  0  0
   -0.4299    1.7956    2.4591 H   0  0  0  0  0  0  0  0  0  0  0  0
   -1.8961    1.2027    1.6541 H   0  0  0  0  0  0  0  0  0  0  0  0
   -1.2024    1.3343   -1.2271 H   0  0  0  0  0  0  0  0  0  0  0  0
   -1.2457    3.1526   -2.8754 H   0  0  0  0  0  0  0  0  0  0  0  0
   -0.9487    5.5022   -2.1544 H   0  0  0  0  0  0  0  0  0  0  0  0
   -0.6267    6.0349    0.2340 H   0  0  0  0  0  0  0  0  0  0  0  0
    0.9324   -4.8550    0.0094 H   0  0  0  0  0  0  0  0  0  0  0  0
    4.7647   -3.5686   -1.8913 H   0  0  0  0  0  0  0  0  0  0  0  0
    6.4654   -1.8366   -1.5884 H   0  0  0  0  0  0  0  0  0  0  0  0
    5.9679    0.2235   -0.4254 H   0  0  0  0  0  0  0  0  0  0  0  0
  2  3  1  0
  3  4  1  0
  4  5  2  0
  4  6  1  0
  6  7  2  0
  7  8  1  0
  8  9  2  0
  9 10  1  0
 10 11  1  0
 11 12  1  0
 12 13  1  0
 13 14  1  0
 14 15  1  0
 14 16  1  0
  9 17  1  0
 17 18  1  0
 18 19  1  0
 19 20  2  0
 20 21  1  0
 21 22  2  0
 22 23  1  0
 23 24  2  0
 24 25  1  0
  7 26  1  0
 26 27  2  0
 27 28  1  0
 28 29  2  0
 28 30  1  0
 27 31  1  0
 31 32  2  0
 32 33  1  0
 33 34  2  0
 34  3  1  0
 17  6  1  0
 24 19  1  0
 34 26  1  0
 16 10  1  0
  1 35  1  0
  2 36  1  0
  2 37  1  0
  2 38  1  0
 11 39  1  0
 11 40  1  0
 12 41  1  0
 12 42  1  0
 13 43  1  0
 13 44  1  0
 14 45  1  1
 15 46  1  0
 15 47  1  0
 16 48  1  0
 16 49  1  0
 18 50  1  0
 18 51  1  0
 20 52  1  0
 21 53  1  0
 22 54  1  0
 23 55  1  0
 30 56  1  0
 31 57  1  0
 32 58  1  0
 33 59  1  0
M  END
$$$$
