
     RDKit          3D

 43 46  0  0  0  0  0  0  0  0999 V2000
    0.9982   -0.7626   -0.6932 O   0  0  0  0  0  0  0  0  0  0  0  0
    1.0811    0.4664   -0.4273 C   0  0  0  0  0  0  0  0  0  0  0  0
   -0.1088    1.2676   -0.3343 N   0  0  0  0  0  0  0  0  0  0  0  0
   -1.4059    0.7247   -0.2698 N   0  0  0  0  0  0  0  0  0  0  0  0
   -1.6957   -0.3683    0.3685 C   0  0  0  0  0  0  0  0  0  0  0  0
   -3.0695   -0.9138    0.3373 C   0  0  0  0  0  0  0  0  0  0  0  0
   -3.2625   -2.2595   -0.0582 C   0  0  0  0  0  0  0  0  0  0  0  0
   -2.1966   -3.0896   -0.4168 O   0  0  0  0  0  0  0  0  0  0  0  0
   -4.5507   -2.7937   -0.1219 C   0  0  0  0  0  0  0  0  0  0  0  0
   -5.6612   -2.0158    0.1906 C   0  0  0  0  0  0  0  0  0  0  0  0
   -5.5011   -0.6874    0.5988 C   0  0  0  0  0  0  0  0  0  0  0  0
   -6.6287    0.0801    0.9323 C   0  0  0  0  0  0  0  0  0  0  0  0
   -6.4800    1.3942    1.3747 C   0  0  0  0  0  0  0  0  0  0  0  0
   -5.2080    1.9500    1.4991 C   0  0  0  0  0  0  0  0  0  0  0  0
   -4.0756    1.2017    1.1686 C   0  0  0  0  0  0  0  0  0  0  0  0
   -4.1998   -0.1230    0.6911 C   0  0  0  0  0  0  0  0  0  0  0  0
    2.4051    1.0891   -0.2471 C   0  0  0  0  0  0  0  0  0  0  0  0
    2.5840    2.3878    0.0848 N   0  0  0  0  0  0  0  0  0  0  0  0
    3.8859    2.6052    0.2071 N   0  0  0  0  0  0  0  0  0  0  0  0
    4.5452    1.4588   -0.0273 C   0  0  0  0  0  0  0  0  0  0  0  0
    3.6447    0.4761   -0.3503 C   0  0  0  0  0  0  0  0  0  0  0  0
    4.0177   -0.9560   -0.6005 C   0  0  0  0  0  0  0  0  0  0  0  0
    5.5248   -1.0736   -0.9088 C   0  0  0  0  0  0  0  0  0  0  0  0
    6.3796   -0.2269    0.0589 C   0  0  0  0  0  0  0  0  0  0  0  0
    6.0310    1.2720   -0.0348 C   0  0  0  0  0  0  0  0  0  0  0  0
   -0.0234    2.3003   -0.4616 H   0  0  0  0  0  0  0  0  0  0  0  0
   -0.9284   -0.9160    0.9002 H   0  0  0  0  0  0  0  0  0  0  0  0
   -1.2336   -2.7806   -0.4447 H   0  0  0  0  0  0  0  0  0  0  0  0
   -4.6924   -3.8219   -0.4306 H   0  0  0  0  0  0  0  0  0  0  0  0
   -6.6483   -2.4581    0.1223 H   0  0  0  0  0  0  0  0  0  0  0  0
   -7.6251   -0.3396    0.8580 H   0  0  0  0  0  0  0  0  0  0  0  0
   -7.3530    1.9794    1.6336 H   0  0  0  0  0  0  0  0  0  0  0  0
   -5.0975    2.9646    1.8601 H   0  0  0  0  0  0  0  0  0  0  0  0
   -3.1113    1.6674    1.3113 H   0  0  0  0  0  0  0  0  0  0  0  0
    4.3099    3.5271    0.4525 H   0  0  0  0  0  0  0  0  0  0  0  0
    3.7764   -1.5517    0.3057 H   0  0  0  0  0  0  0  0  0  0  0  0
    3.4375   -1.3563   -1.4584 H   0  0  0  0  0  0  0  0  0  0  0  0
    5.8305   -2.1394   -0.8352 H   0  0  0  0  0  0  0  0  0  0  0  0
    5.7150   -0.7370   -1.9518 H   0  0  0  0  0  0  0  0  0  0  0  0
    6.2121   -0.5812    1.0999 H   0  0  0  0  0  0  0  0  0  0  0  0
    7.4557   -0.3674   -0.1796 H   0  0  0  0  0  0  0  0  0  0  0  0
    6.4837    1.8165    0.8210 H   0  0  0  0  0  0  0  0  0  0  0  0
    6.4388    1.6905   -0.9797 H   0  0  0  0  0  0  0  0  0  0  0  0
  1  2  2  0
  2  3  1  0
  3  4  1  0
  4  5  2  0
  5  6  1  0
  6  7  2  0
  7  8  1  0
  7  9  1  0
  9 10  2  0
 10 11  1  0
 11 12  2  0
 12 13  1  0
 13 14  2  0
 14 15  1  0
 15 16  2  0
  2 17  1  0
 17 18  2  0
 18 19  1  0
 19 20  1  0
 20 21  2  0
 21 22  1  0
 22 23  1  0
 23 24  1  0
 24 25  1  0
 16  6  1  0
 21 17  1  0
 16 11  1  0
 25 20  1  0
  3 26  1  0
  5 27  1  0
  8 28  1  0
  9 29  1  0
 10 30  1  0
 12 31  1  0
 13 32  1  0
 14 33  1  0
 15 34  1  0
 19 35  1  0
 22 36  1  0
 22 37  1  0
 23 38  1  0
 23 39  1  0
 24 40  1  0
 24 41  1  0
 25 42  1  0
 25 43  1  0
M  END
$$$$
