
     RDKit          3D

 71 75  0  0  0  0  0  0  0  0999 V2000
    6.8790    3.0104    0.3655 C   0  0  0  0  0  0  0  0  0  0  0  0
    7.9065    1.9886    0.0057 C   0  0  0  0  0  0  0  0  0  0  0  0
    8.7480    2.0944   -0.9959 O   0  0  0  0  0  0  0  0  0  0  0  0
    9.4591    0.9898   -0.9848 C   0  0  0  0  0  0  0  0  0  0  0  0
   10.3754    0.7417   -1.8110 O   0  0  0  0  0  0  0  0  0  0  0  0
    9.1087    0.1718   -0.0185 O   0  0  0  0  0  0  0  0  0  0  0  0
    8.1312    0.7701    0.6210 C   0  0  0  0  0  0  0  0  0  0  0  0
    7.4157    0.2021    1.8076 C   0  0  0  0  0  0  0  0  0  0  0  0
    6.0079    0.1888    1.5836 O   0  0  0  0  0  0  0  0  0  0  0  0
    5.3834   -0.6533    0.6548 C   0  0  0  0  0  0  0  0  0  0  0  0
    6.0609   -1.5141    0.0278 O   0  0  0  0  0  0  0  0  0  0  0  0
    3.9289   -0.5259    0.4090 C   0  0  0  0  0  0  0  0  0  0  0  0
    3.1917    0.4661    1.0713 C   0  0  0  0  0  0  0  0  0  0  0  0
    1.8239    0.6017    0.8461 C   0  0  0  0  0  0  0  0  0  0  0  0
    1.1688   -0.2540   -0.0489 C   0  0  0  0  0  0  0  0  0  0  0  0
   -0.1946   -0.1414   -0.2937 C   0  0  0  0  0  0  0  0  0  0  0  0
   -1.0560    0.7260    0.2707 N   0  0  0  0  0  0  0  0  0  0  0  0
   -2.2363    0.3919   -0.3019 C   0  0  0  0  0  0  0  0  0  0  0  0
   -3.4675    1.0224    0.0649 N   0  0  0  0  0  0  0  0  0  0  0  0
   -4.0886    0.6975    1.3525 C   0  0  0  0  0  0  0  0  0  0  0  0
   -4.2872    1.9753    2.1752 C   0  0  0  0  0  0  0  0  0  0  0  0
   -4.9340    3.1299    1.3719 C   0  0  0  0  0  0  0  0  0  0  0  0
   -5.2122    2.7802   -0.1037 C   0  0  1  0  0  0  0  0  0  0  0  0
   -5.6280    3.9780   -0.8361 N   0  0  0  0  0  0  0  0  0  0  0  0
   -3.9728    2.1316   -0.7524 C   0  0  0  0  0  0  0  0  0  0  0  0
   -2.1507   -0.6372   -1.1839 N   0  0  0  0  0  0  0  0  0  0  0  0
   -3.2758   -1.2763   -1.8791 C   0  0  0  0  0  0  0  0  0  0  0  0
   -4.0774   -2.1306   -0.9224 C   0  0  0  0  0  0  0  0  0  0  0  0
   -3.4226   -3.1587   -0.2195 C   0  0  0  0  0  0  0  0  0  0  0  0
   -4.1228   -3.9635    0.6815 C   0  0  0  0  0  0  0  0  0  0  0  0
   -5.4872   -3.7606    0.8860 C   0  0  0  0  0  0  0  0  0  0  0  0
   -6.1567   -2.7567    0.1847 C   0  0  0  0  0  0  0  0  0  0  0  0
   -5.4668   -1.9428   -0.7227 C   0  0  0  0  0  0  0  0  0  0  0  0
   -6.3885   -0.7083   -1.5764 Cl  0  0  0  0  0  0  0  0  0  0  0  0
   -0.8392   -0.9690   -1.1601 C   0  0  0  0  0  0  0  0  0  0  0  0
   -0.1439   -1.9817   -1.8330 C   0  0  0  0  0  0  0  0  0  0  0  0
   -0.7551   -2.7550   -2.6182 O   0  0  0  0  0  0  0  0  0  0  0  0
    1.2157   -2.1213   -1.6192 N   0  0  0  0  0  0  0  0  0  0  0  0
    1.9550   -3.1831   -2.3319 C   0  0  0  0  0  0  0  0  0  0  0  0
    1.8832   -1.2736   -0.7385 C   0  0  0  0  0  0  0  0  0  0  0  0
    3.2735   -1.3881   -0.4903 C   0  0  0  0  0  0  0  0  0  0  0  0
    0.6878    0.0000    0.0000 Cl  0  0  0  0  0  0  0  0  0  0  0  0
    6.8947    3.1935    1.4602 H   0  0  0  0  0  0  0  0  0  0  0  0
    5.8736    2.6468    0.0672 H   0  0  0  0  0  0  0  0  0  0  0  0
    7.0925    3.9631   -0.1625 H   0  0  0  0  0  0  0  0  0  0  0  0
    7.6324    0.8356    2.6926 H   0  0  0  0  0  0  0  0  0  0  0  0
    7.7780   -0.8268    2.0202 H   0  0  0  0  0  0  0  0  0  0  0  0
    3.6731    1.1439    1.7652 H   0  0  0  0  0  0  0  0  0  0  0  0
    1.2799    1.3777    1.3710 H   0  0  0  0  0  0  0  0  0  0  0  0
   -5.0732    0.2158    1.1743 H   0  0  0  0  0  0  0  0  0  0  0  0
   -3.4628   -0.0216    1.9263 H   0  0  0  0  0  0  0  0  0  0  0  0
   -4.9133    1.7386    3.0627 H   0  0  0  0  0  0  0  0  0  0  0  0
   -3.2945    2.3071    2.5514 H   0  0  0  0  0  0  0  0  0  0  0  0
   -5.8913    3.4234    1.8556 H   0  0  0  0  0  0  0  0  0  0  0  0
   -4.2612    4.0149    1.4177 H   0  0  0  0  0  0  0  0  0  0  0  0
   -6.0505    2.0485   -0.1341 H   0  0  0  0  0  0  0  0  0  0  0  0
   -4.8223    4.6420   -0.9053 H   0  0  0  0  0  0  0  0  0  0  0  0
   -5.8851    3.6993   -1.8111 H   0  0  0  0  0  0  0  0  0  0  0  0
   -4.2406    1.7598   -1.7633 H   0  0  0  0  0  0  0  0  0  0  0  0
   -3.1694    2.8927   -0.8634 H   0  0  0  0  0  0  0  0  0  0  0  0
   -3.8926   -0.4870   -2.3473 H   0  0  0  0  0  0  0  0  0  0  0  0
   -2.9336   -1.9010   -2.7238 H   0  0  0  0  0  0  0  0  0  0  0  0
   -2.3650   -3.3361   -0.3637 H   0  0  0  0  0  0  0  0  0  0  0  0
   -3.6061   -4.7464    1.2215 H   0  0  0  0  0  0  0  0  0  0  0  0
   -6.0281   -4.3851    1.5853 H   0  0  0  0  0  0  0  0  0  0  0  0
   -7.2174   -2.6124    0.3467 H   0  0  0  0  0  0  0  0  0  0  0  0
    2.4060   -3.8861   -1.5995 H   0  0  0  0  0  0  0  0  0  0  0  0
    2.7499   -2.7317   -2.9631 H   0  0  0  0  0  0  0  0  0  0  0  0
    1.3128   -3.7862   -3.0060 H   0  0  0  0  0  0  0  0  0  0  0  0
    3.8615   -2.1453   -0.9880 H   0  0  0  0  0  0  0  0  0  0  0  0
   -0.6878    0.0000    0.0000 H   0  0  0  0  0  0  0  0  0  0  0  0
  1  2  1  0
  2  3  1  0
  3  4  1  0
  4  5  2  0
  4  6  1  0
  6  7  1  0
  7  8  1  0
  8  9  1  0
  9 10  1  0
 10 11  2  0
 10 12  1  0
 12 13  2  0
 13 14  1  0
 14 15  2  0
 15 16  1  0
 16 17  1  0
 17 18  2  0
 18 19  1  0
 19 20  1  0
 20 21  1  0
 21 22  1  0
 22 23  1  0
 23 24  1  0
 23 25  1  0
 18 26  1  0
 26 27  1  0
 27 28  1  0
 28 29  2  0
 29 30  1  0
 30 31  2  0
 31 32  1  0
 32 33  2  0
 33 34  1  0
 26 35  1  0
 35 36  1  0
 36 37  2  0
 36 38  1  0
 38 39  1  0
 38 40  1  0
 40 41  2  0
  7  2  2  0
 41 12  1  0
 40 15  1  0
 35 16  2  0
 25 19  1  0
 33 28  1  0
  1 43  1  0
  1 44  1  0
  1 45  1  0
  8 46  1  0
  8 47  1  0
 13 48  1  0
 14 49  1  0
 20 50  1  0
 20 51  1  0
 21 52  1  0
 21 53  1  0
 22 54  1  0
 22 55  1  0
 23 56  1  1
 24 57  1  0
 24 58  1  0
 25 59  1  0
 25 60  1  0
 27 61  1  0
 27 62  1  0
 29 63  1  0
 30 64  1  0
 31 65  1  0
 32 66  1  0
 39 67  1  0
 39 68  1  0
 39 69  1  0
 41 70  1  0
 42 71  1  0
M  END
$$$$
