
     RDKit          3D

 48 51  0  0  0  0  0  0  0  0999 V2000
    7.2602   -0.0567   -2.8049 C   0  0  0  0  0  0  0  0  0  0  0  0
    7.0860    0.4975   -1.5050 O   0  0  0  0  0  0  0  0  0  0  0  0
    5.8410    0.7034   -0.8922 C   0  0  0  0  0  0  0  0  0  0  0  0
    5.8151    1.2578    0.3912 C   0  0  0  0  0  0  0  0  0  0  0  0
    4.6006    1.4821    1.0453 C   0  0  0  0  0  0  0  0  0  0  0  0
    3.3827    1.1461    0.4281 C   0  0  0  0  0  0  0  0  0  0  0  0
    2.1010    1.3978    1.1359 C   0  0  0  0  0  0  0  0  0  0  0  0
    0.9647    0.6031    0.9113 C   0  0  0  0  0  0  0  0  0  0  0  0
   -0.2181    0.8909    1.6120 C   0  0  0  0  0  0  0  0  0  0  0  0
   -1.4161    0.1123    1.4190 N   0  0  0  0  0  0  0  0  0  0  0  0
   -1.5457   -0.9655    0.4509 C   0  0  0  0  0  0  0  0  0  0  0  0
   -3.0051   -1.4335    0.5198 C   0  0  2  0  0  0  0  0  0  0  0  0
   -3.7606   -1.1743   -0.7772 C   0  0  0  0  0  0  0  0  0  0  0  0
   -4.3826   -2.2481   -1.4418 C   0  0  0  0  0  0  0  0  0  0  0  0
   -5.0911   -2.0368   -2.6283 C   0  0  0  0  0  0  0  0  0  0  0  0
   -5.6828   -3.0827   -3.2570 F   0  0  0  0  0  0  0  0  0  0  0  0
   -5.1911   -0.7511   -3.1649 C   0  0  0  0  0  0  0  0  0  0  0  0
   -5.8785   -0.5454   -4.3155 F   0  0  0  0  0  0  0  0  0  0  0  0
   -4.5839    0.3251   -2.5146 C   0  0  0  0  0  0  0  0  0  0  0  0
   -3.8735    0.1222   -1.3272 C   0  0  0  0  0  0  0  0  0  0  0  0
   -3.2984    1.1906   -0.7210 F   0  0  0  0  0  0  0  0  0  0  0  0
   -3.6465   -0.6965    1.7230 C   0  0  1  0  0  0  0  0  0  0  0  0
   -3.9501   -1.6200    2.8205 N   0  0  0  0  0  0  0  0  0  0  0  0
   -2.6310    0.3556    2.1788 C   0  0  0  0  0  0  0  0  0  0  0  0
   -0.2261    1.9248    2.4967 N   0  0  0  0  0  0  0  0  0  0  0  0
    0.8806    2.6786    2.7139 C   0  0  0  0  0  0  0  0  0  0  0  0
    2.0276    2.4123    2.0400 N   0  0  0  0  0  0  0  0  0  0  0  0
    3.4099    0.5985   -0.8686 C   0  0  0  0  0  0  0  0  0  0  0  0
    4.6261    0.3761   -1.5215 C   0  0  0  0  0  0  0  0  0  0  0  0
    6.7650    0.5857   -3.5634 H   0  0  0  0  0  0  0  0  0  0  0  0
    8.3440   -0.1072   -3.0353 H   0  0  0  0  0  0  0  0  0  0  0  0
    6.8406   -1.0843   -2.8413 H   0  0  0  0  0  0  0  0  0  0  0  0
    6.7431    1.5163    0.8857 H   0  0  0  0  0  0  0  0  0  0  0  0
    4.6156    1.9073    2.0412 H   0  0  0  0  0  0  0  0  0  0  0  0
    1.0080   -0.2348    0.2304 H   0  0  0  0  0  0  0  0  0  0  0  0
   -0.8632   -1.7965    0.7341 H   0  0  0  0  0  0  0  0  0  0  0  0
   -1.2681   -0.6050   -0.5640 H   0  0  0  0  0  0  0  0  0  0  0  0
   -2.9937   -2.5304    0.7144 H   0  0  0  0  0  0  0  0  0  0  0  0
   -4.3207   -3.2525   -1.0418 H   0  0  0  0  0  0  0  0  0  0  0  0
   -4.6644    1.3210   -2.9313 H   0  0  0  0  0  0  0  0  0  0  0  0
   -4.5920   -0.1853    1.4304 H   0  0  0  0  0  0  0  0  0  0  0  0
   -3.0888   -2.1595    3.0716 H   0  0  0  0  0  0  0  0  0  0  0  0
   -4.6655   -2.3067    2.4873 H   0  0  0  0  0  0  0  0  0  0  0  0
   -2.4182    0.2792    3.2680 H   0  0  0  0  0  0  0  0  0  0  0  0
   -3.0082    1.3779    1.9582 H   0  0  0  0  0  0  0  0  0  0  0  0
    0.8485    3.4926    3.4247 H   0  0  0  0  0  0  0  0  0  0  0  0
    2.4936    0.3627   -1.3934 H   0  0  0  0  0  0  0  0  0  0  0  0
    4.6098   -0.0446   -2.5176 H   0  0  0  0  0  0  0  0  0  0  0  0
  1  2  1  0
  2  3  1  0
  3  4  2  0
  4  5  1  0
  5  6  2  0
  6  7  1  0
  7  8  2  0
  8  9  1  0
  9 10  1  0
 10 11  1  0
 11 12  1  0
 12 13  1  0
 13 14  2  0
 14 15  1  0
 15 16  1  0
 15 17  2  0
 17 18  1  0
 17 19  1  0
 19 20  2  0
 20 21  1  0
 12 22  1  0
 22 23  1  0
 22 24  1  0
  9 25  2  0
 25 26  1  0
 26 27  2  0
  6 28  1  0
 28 29  2  0
 29  3  1  0
 27  7  1  0
 24 10  1  0
 20 13  1  0
  1 30  1  0
  1 31  1  0
  1 32  1  0
  4 33  1  0
  5 34  1  0
  8 35  1  0
 11 36  1  0
 11 37  1  0
 12 38  1  1
 14 39  1  0
 19 40  1  0
 22 41  1  6
 23 42  1  0
 23 43  1  0
 24 44  1  0
 24 45  1  0
 26 46  1  0
 28 47  1  0
 29 48  1  0
M  END
$$$$
