
     RDKit          3D

 37 39  0  0  0  0  0  0  0  0999 V2000
   -2.6180    2.6190   -1.4078 N   0  0  0  0  0  0  0  0  0  0  0  0
   -2.4053    1.1925   -1.6309 C   0  0  0  0  0  0  0  0  0  0  0  0
   -1.0053    0.7980   -1.2042 C   0  0  0  0  0  0  0  0  0  0  0  0
    0.1231    1.1741   -1.9703 C   0  0  0  0  0  0  0  0  0  0  0  0
    0.0064    1.9756   -3.1518 N   0  0  0  0  0  0  0  0  0  0  0  0
    1.3613    0.7685   -1.5861 N   0  0  0  0  0  0  0  0  0  0  0  0
    1.5592    0.0123   -0.4760 C   0  0  0  0  0  0  0  0  0  0  0  0
    2.9269   -0.4177   -0.0938 C   0  0  0  0  0  0  0  0  0  0  0  0
    3.1348   -1.2136    1.0500 C   0  0  0  0  0  0  0  0  0  0  0  0
    4.4247   -1.6186    1.4077 C   0  0  0  0  0  0  0  0  0  0  0  0
    4.6124   -2.3847    2.5106 F   0  0  0  0  0  0  0  0  0  0  0  0
    5.5203   -1.2357    0.6308 C   0  0  0  0  0  0  0  0  0  0  0  0
    5.3288   -0.4471   -0.5058 C   0  0  0  0  0  0  0  0  0  0  0  0
    6.3935   -0.0764   -1.2590 F   0  0  0  0  0  0  0  0  0  0  0  0
    4.0410   -0.0393   -0.8683 C   0  0  0  0  0  0  0  0  0  0  0  0
    0.4917   -0.3425    0.2831 N   0  0  0  0  0  0  0  0  0  0  0  0
   -0.7737    0.0307   -0.0377 C   0  0  0  0  0  0  0  0  0  0  0  0
   -1.8643   -0.3982    0.8580 C   0  0  0  0  0  0  0  0  0  0  0  0
   -2.4789    0.5425    1.6990 C   0  0  0  0  0  0  0  0  0  0  0  0
   -3.5060    0.1522    2.5620 C   0  0  0  0  0  0  0  0  0  0  0  0
   -3.9222   -1.1817    2.5979 C   0  0  0  0  0  0  0  0  0  0  0  0
   -5.2118   -1.6694    3.6823 Cl  0  0  0  0  0  0  0  0  0  0  0  0
   -3.3076   -2.1276    1.7712 C   0  0  0  0  0  0  0  0  0  0  0  0
   -2.2777   -1.7444    0.9035 C   0  0  0  0  0  0  0  0  0  0  0  0
   -1.5411   -2.9653   -0.1289 Cl  0  0  0  0  0  0  0  0  0  0  0  0
   -3.5602    2.8642   -1.7891 H   0  0  0  0  0  0  0  0  0  0  0  0
   -2.6615    2.7875   -0.3770 H   0  0  0  0  0  0  0  0  0  0  0  0
   -2.5407    0.9586   -2.7088 H   0  0  0  0  0  0  0  0  0  0  0  0
   -3.1871    0.6097   -1.0986 H   0  0  0  0  0  0  0  0  0  0  0  0
    0.8622    2.2123   -3.7012 H   0  0  0  0  0  0  0  0  0  0  0  0
   -0.9016    2.3657   -3.4839 H   0  0  0  0  0  0  0  0  0  0  0  0
    2.3021   -1.5245    1.6684 H   0  0  0  0  0  0  0  0  0  0  0  0
    6.5178   -1.5503    0.9095 H   0  0  0  0  0  0  0  0  0  0  0  0
    3.9192    0.5717   -1.7538 H   0  0  0  0  0  0  0  0  0  0  0  0
   -2.1567    1.5762    1.6919 H   0  0  0  0  0  0  0  0  0  0  0  0
   -3.9747    0.8865    3.2047 H   0  0  0  0  0  0  0  0  0  0  0  0
   -3.6311   -3.1606    1.8023 H   0  0  0  0  0  0  0  0  0  0  0  0
  1  2  1  0
  2  3  1  0
  3  4  2  0
  4  5  1  0
  4  6  1  0
  6  7  2  0
  7  8  1  0
  8  9  2  0
  9 10  1  0
 10 11  1  0
 10 12  2  0
 12 13  1  0
 13 14  1  0
 13 15  2  0
  7 16  1  0
 16 17  2  0
 17 18  1  0
 18 19  2  0
 19 20  1  0
 20 21  2  0
 21 22  1  0
 21 23  1  0
 23 24  2  0
 24 25  1  0
 17  3  1  0
 24 18  1  0
 15  8  1  0
  1 26  1  0
  1 27  1  0
  2 28  1  0
  2 29  1  0
  5 30  1  0
  5 31  1  0
  9 32  1  0
 12 33  1  0
 15 34  1  0
 19 35  1  0
 20 36  1  0
 23 37  1  0
M  END
$$$$
