
     RDKit          3D

 52 54  0  0  0  0  0  0  0  0999 V2000
   -2.4911    3.2034    0.0473 N   0  0  0  0  0  0  0  0  0  0  0  0
   -1.8941    2.0055   -0.5540 C   0  0  2  0  0  0  0  0  0  0  0  0
   -2.9345    1.2358   -1.3404 C   0  0  0  0  0  0  0  0  0  0  0  0
   -2.7369    1.0576   -2.5734 O   0  0  0  0  0  0  0  0  0  0  0  0
   -4.0935    0.6377   -0.7275 N   0  0  0  0  0  0  0  0  0  0  0  0
   -4.7774   -0.4974   -1.3229 C   0  0  0  0  0  0  0  0  0  0  0  0
   -5.8938   -0.8594   -0.3550 C   0  0  0  0  0  0  0  0  0  0  0  0
   -6.0972    0.3737    0.5187 C   0  0  0  0  0  0  0  0  0  0  0  0
   -4.7982    1.1649    0.4304 C   0  0  0  0  0  0  0  0  0  0  0  0
   -1.1903    1.1050    0.4985 C   0  0  2  0  0  0  0  0  0  0  0  0
   -0.0844    1.8348    1.2531 C   0  0  0  0  0  0  0  0  0  0  0  0
    0.8464    0.7379    1.7282 C   0  0  0  0  0  0  0  0  0  0  0  0
    0.8244   -0.3229    0.6264 C   0  0  1  0  0  0  0  0  0  0  0  0
    0.9228   -1.6848    1.1773 N   0  0  0  0  0  0  0  0  0  0  0  0
    2.5205   -2.0101    1.7921 S   0  0  0  0  0  0  0  0  0  0  0  0
    2.7541   -1.2185    3.0488 O   0  0  0  0  0  0  0  0  0  0  0  0
    2.6263   -3.4703    2.1315 O   0  0  0  0  0  0  0  0  0  0  0  0
    3.7510   -1.6195    0.5916 C   0  0  0  0  0  0  0  0  0  0  0  0
    3.9140   -2.4416   -0.5293 C   0  0  0  0  0  0  0  0  0  0  0  0
    4.8696   -2.1289   -1.5004 C   0  0  0  0  0  0  0  0  0  0  0  0
    5.6743   -0.9841   -1.3652 C   0  0  0  0  0  0  0  0  0  0  0  0
    6.6836   -0.6545   -2.3955 C   0  0  0  0  0  0  0  0  0  0  0  0
    7.4056    0.3724   -2.2768 O   0  0  0  0  0  0  0  0  0  0  0  0
    6.8459   -1.4768   -3.5076 O   0  0  0  0  0  0  0  0  0  0  0  0
    5.5018   -0.1589   -0.2391 C   0  0  0  0  0  0  0  0  0  0  0  0
    4.5457   -0.4743    0.7307 C   0  0  0  0  0  0  0  0  0  0  0  0
   -0.5075   -0.1250   -0.1175 C   0  0  0  0  0  0  0  0  0  0  0  0
   -2.8333    2.9939    1.0123 H   0  0  0  0  0  0  0  0  0  0  0  0
   -1.7466    3.9306    0.1530 H   0  0  0  0  0  0  0  0  0  0  0  0
   -1.1174    2.3428   -1.2804 H   0  0  0  0  0  0  0  0  0  0  0  0
   -5.1994   -0.2054   -2.3092 H   0  0  0  0  0  0  0  0  0  0  0  0
   -4.0749   -1.3499   -1.4482 H   0  0  0  0  0  0  0  0  0  0  0  0
   -5.5733   -1.7144    0.2804 H   0  0  0  0  0  0  0  0  0  0  0  0
   -6.8265   -1.1333   -0.8943 H   0  0  0  0  0  0  0  0  0  0  0  0
   -6.3304    0.0910    1.5683 H   0  0  0  0  0  0  0  0  0  0  0  0
   -6.9344    0.9819    0.1105 H   0  0  0  0  0  0  0  0  0  0  0  0
   -5.0221    2.2444    0.2917 H   0  0  0  0  0  0  0  0  0  0  0  0
   -4.1982    1.0077    1.3498 H   0  0  0  0  0  0  0  0  0  0  0  0
   -1.9309    0.7479    1.2467 H   0  0  0  0  0  0  0  0  0  0  0  0
    0.4736    2.5172    0.5733 H   0  0  0  0  0  0  0  0  0  0  0  0
   -0.4891    2.4170    2.1094 H   0  0  0  0  0  0  0  0  0  0  0  0
    0.4545    0.3178    2.6816 H   0  0  0  0  0  0  0  0  0  0  0  0
    1.8726    1.1322    1.8930 H   0  0  0  0  0  0  0  0  0  0  0  0
    1.6527   -0.1262   -0.0912 H   0  0  0  0  0  0  0  0  0  0  0  0
    0.7783   -2.3615    0.3923 H   0  0  0  0  0  0  0  0  0  0  0  0
    3.2974   -3.3229   -0.6536 H   0  0  0  0  0  0  0  0  0  0  0  0
    4.9753   -2.7822   -2.3573 H   0  0  0  0  0  0  0  0  0  0  0  0
    7.5340   -1.2602   -4.2189 H   0  0  0  0  0  0  0  0  0  0  0  0
    6.1032    0.7321   -0.1084 H   0  0  0  0  0  0  0  0  0  0  0  0
    4.4233    0.1794    1.5844 H   0  0  0  0  0  0  0  0  0  0  0  0
   -1.1760   -1.0094   -0.0208 H   0  0  0  0  0  0  0  0  0  0  0  0
   -0.2999    0.0279   -1.2001 H   0  0  0  0  0  0  0  0  0  0  0  0
  1  2  1  0
  2  3  1  0
  3  4  2  0
  3  5  1  0
  5  6  1  0
  6  7  1  0
  7  8  1  0
  8  9  1  0
  2 10  1  0
 10 11  1  0
 11 12  1  0
 12 13  1  0
 13 14  1  0
 14 15  1  0
 15 16  2  0
 15 17  2  0
 15 18  1  0
 18 19  2  0
 19 20  1  0
 20 21  2  0
 21 22  1  0
 22 23  2  0
 22 24  1  0
 21 25  1  0
 25 26  2  0
 13 27  1  0
  9  5  1  0
 27 10  1  0
 26 18  1  0
  1 28  1  0
  1 29  1  0
  2 30  1  6
  6 31  1  0
  6 32  1  0
  7 33  1  0
  7 34  1  0
  8 35  1  0
  8 36  1  0
  9 37  1  0
  9 38  1  0
 10 39  1  1
 11 40  1  0
 11 41  1  0
 12 42  1  0
 12 43  1  0
 13 44  1  6
 14 45  1  0
 19 46  1  0
 20 47  1  0
 24 48  1  0
 25 49  1  0
 26 50  1  0
 27 51  1  0
 27 52  1  0
M  END
$$$$
