
     RDKit          3D

 80 82  0  0  0  0  0  0  0  0999 V2000
   -1.2210   -4.5615   -2.0033 C   0  0  0  0  0  0  0  0  0  0  0  0
   -0.8980   -3.2229   -2.6684 C   0  0  0  0  0  0  0  0  0  0  0  0
   -2.1198   -2.2886   -2.7311 C   0  0  0  0  0  0  0  0  0  0  0  0
   -2.4347   -1.5602   -1.3990 C   0  0  2  0  0  0  0  0  0  0  0  0
   -3.7309   -0.8589   -1.5196 N   0  0  0  0  0  0  0  0  0  0  0  0
   -4.2913   -0.4418   -0.2190 C   0  0  1  0  0  0  0  0  0  0  0  0
   -5.3398    0.6585   -0.4602 C   0  0  0  0  0  0  0  0  0  0  0  0
   -5.8083    1.3193    0.8448 C   0  0  0  0  0  0  0  0  0  0  0  0
   -6.7823    2.4291    0.5535 C   0  0  0  0  0  0  0  0  0  0  0  0
   -6.3211    3.7380    0.3334 C   0  0  0  0  0  0  0  0  0  0  0  0
   -7.2247    4.7612    0.0300 C   0  0  0  0  0  0  0  0  0  0  0  0
   -8.5912    4.4836   -0.0655 C   0  0  0  0  0  0  0  0  0  0  0  0
   -9.0561    3.1814    0.1381 C   0  0  0  0  0  0  0  0  0  0  0  0
   -8.1559    2.1552    0.4418 C   0  0  0  0  0  0  0  0  0  0  0  0
   -4.9075   -1.6097    0.5150 C   0  0  0  0  0  0  0  0  0  0  0  0
   -4.6791   -1.7700    1.7433 O   0  0  0  0  0  0  0  0  0  0  0  0
   -5.7715   -2.4796   -0.1444 O   0  0  0  0  0  0  0  0  0  0  0  0
   -1.3444   -0.5462   -1.1071 C   0  0  0  0  0  0  0  0  0  0  0  0
   -1.3520    0.5416   -1.7469 O   0  0  0  0  0  0  0  0  0  0  0  0
   -0.2642   -0.8073   -0.1862 N   0  0  0  0  0  0  0  0  0  0  0  0
    0.9857   -0.0677   -0.2559 C   0  0  0  0  0  0  0  0  0  0  0  0
    2.0042   -0.9176    0.5028 C   0  0  1  0  0  0  0  0  0  0  0  0
    2.9759   -0.0997    1.2365 N   0  0  0  0  0  0  0  0  0  0  0  0
    4.1282   -0.6769    1.8674 C   0  0  0  0  0  0  0  0  0  0  0  0
    4.3223   -1.9221    1.8223 O   0  0  0  0  0  0  0  0  0  0  0  0
    5.1366    0.2011    2.5510 C   0  0  0  0  0  0  0  0  0  0  0  0
    6.3613    0.4770    1.6505 C   0  0  2  0  0  0  0  0  0  0  0  0
    7.4234    1.1290    2.4223 N   0  0  0  0  0  0  0  0  0  0  0  0
    5.9868    1.3500    0.4343 C   0  0  0  0  0  0  0  0  0  0  0  0
    7.1679    1.5538   -0.4827 C   0  0  0  0  0  0  0  0  0  0  0  0
    7.5055    0.5588   -1.4161 C   0  0  0  0  0  0  0  0  0  0  0  0
    8.6126    0.7220   -2.2545 C   0  0  0  0  0  0  0  0  0  0  0  0
    8.9270   -0.2429   -3.1539 F   0  0  0  0  0  0  0  0  0  0  0  0
    9.3957    1.8765   -2.1629 C   0  0  0  0  0  0  0  0  0  0  0  0
   10.4704    2.0355   -2.9744 F   0  0  0  0  0  0  0  0  0  0  0  0
    9.0737    2.8669   -1.2309 C   0  0  0  0  0  0  0  0  0  0  0  0
    7.9673    2.7092   -0.3895 C   0  0  0  0  0  0  0  0  0  0  0  0
    7.6801    3.6801    0.5143 F   0  0  0  0  0  0  0  0  0  0  0  0
    1.1734   -1.7899    1.4441 C   0  0  0  0  0  0  0  0  0  0  0  0
   -0.2073   -1.8944    0.7880 C   0  0  1  0  0  0  0  0  0  0  0  0
   -1.2950   -1.7791    1.8176 C   0  0  0  0  0  0  0  0  0  0  0  0
   -1.6303   -0.6510    2.2698 O   0  0  0  0  0  0  0  0  0  0  0  0
   -1.8793   -2.9336    2.3283 O   0  0  0  0  0  0  0  0  0  0  0  0
   -1.5864   -4.4195   -0.9665 H   0  0  0  0  0  0  0  0  0  0  0  0
   -1.9962   -5.1023   -2.5867 H   0  0  0  0  0  0  0  0  0  0  0  0
   -0.3048   -5.1879   -1.9701 H   0  0  0  0  0  0  0  0  0  0  0  0
   -0.5636   -3.4323   -3.7076 H   0  0  0  0  0  0  0  0  0  0  0  0
   -0.0480   -2.7342   -2.1492 H   0  0  0  0  0  0  0  0  0  0  0  0
   -1.9453   -1.5290   -3.5252 H   0  0  0  0  0  0  0  0  0  0  0  0
   -3.0006   -2.8850   -3.0559 H   0  0  0  0  0  0  0  0  0  0  0  0
   -2.5019   -2.3167   -0.5914 H   0  0  0  0  0  0  0  0  0  0  0  0
   -4.4307   -1.4568   -2.0193 H   0  0  0  0  0  0  0  0  0  0  0  0
   -3.4850   -0.0006    0.4083 H   0  0  0  0  0  0  0  0  0  0  0  0
   -4.8875    1.4402   -1.1105 H   0  0  0  0  0  0  0  0  0  0  0  0
   -6.2146    0.2330   -1.0010 H   0  0  0  0  0  0  0  0  0  0  0  0
   -4.9320    1.7243    1.3971 H   0  0  0  0  0  0  0  0  0  0  0  0
   -6.2931    0.5649    1.5017 H   0  0  0  0  0  0  0  0  0  0  0  0
   -5.2638    3.9643    0.3952 H   0  0  0  0  0  0  0  0  0  0  0  0
   -6.8651    5.7687   -0.1346 H   0  0  0  0  0  0  0  0  0  0  0  0
   -9.2891    5.2765   -0.3018 H   0  0  0  0  0  0  0  0  0  0  0  0
  -10.1137    2.9663    0.0572 H   0  0  0  0  0  0  0  0  0  0  0  0
   -8.5277    1.1485    0.5880 H   0  0  0  0  0  0  0  0  0  0  0  0
   -6.2026   -3.2542    0.3456 H   0  0  0  0  0  0  0  0  0  0  0  0
    1.3093    0.0585   -1.3125 H   0  0  0  0  0  0  0  0  0  0  0  0
    0.8379    0.9298    0.2117 H   0  0  0  0  0  0  0  0  0  0  0  0
    2.5373   -1.5682   -0.2273 H   0  0  0  0  0  0  0  0  0  0  0  0
    2.8729    0.9403    1.2542 H   0  0  0  0  0  0  0  0  0  0  0  0
    5.4688   -0.3112    3.4801 H   0  0  0  0  0  0  0  0  0  0  0  0
    4.6624    1.1590    2.8571 H   0  0  0  0  0  0  0  0  0  0  0  0
    6.7511   -0.4980    1.2784 H   0  0  0  0  0  0  0  0  0  0  0  0
    7.0387    1.9822    2.8905 H   0  0  0  0  0  0  0  0  0  0  0  0
    7.7449    0.4759    3.1735 H   0  0  0  0  0  0  0  0  0  0  0  0
    5.1737    0.8622   -0.1453 H   0  0  0  0  0  0  0  0  0  0  0  0
    5.5873    2.3286    0.7791 H   0  0  0  0  0  0  0  0  0  0  0  0
    6.9106   -0.3432   -1.4917 H   0  0  0  0  0  0  0  0  0  0  0  0
    9.6843    3.7578   -1.1581 H   0  0  0  0  0  0  0  0  0  0  0  0
    1.1097   -1.3020    2.4438 H   0  0  0  0  0  0  0  0  0  0  0  0
    1.6335   -2.7945    1.5677 H   0  0  0  0  0  0  0  0  0  0  0  0
   -0.2860   -2.8679    0.2635 H   0  0  0  0  0  0  0  0  0  0  0  0
   -2.5770   -2.8837    3.0607 H   0  0  0  0  0  0  0  0  0  0  0  0
  1  2  1  0
  2  3  1  0
  3  4  1  0
  4  5  1  0
  5  6  1  0
  6  7  1  0
  7  8  1  0
  8  9  1  0
  9 10  2  0
 10 11  1  0
 11 12  2  0
 12 13  1  0
 13 14  2  0
  6 15  1  0
 15 16  2  0
 15 17  1  0
  4 18  1  0
 18 19  2  0
 18 20  1  0
 20 21  1  0
 21 22  1  0
 22 23  1  0
 23 24  1  0
 24 25  2  0
 24 26  1  0
 26 27  1  0
 27 28  1  0
 27 29  1  0
 29 30  1  0
 30 31  2  0
 31 32  1  0
 32 33  1  0
 32 34  2  0
 34 35  1  0
 34 36  1  0
 36 37  2  0
 37 38  1  0
 22 39  1  0
 39 40  1  0
 40 41  1  0
 41 42  2  0
 41 43  1  0
 14  9  1  0
 40 20  1  0
 37 30  1  0
  1 44  1  0
  1 45  1  0
  1 46  1  0
  2 47  1  0
  2 48  1  0
  3 49  1  0
  3 50  1  0
  4 51  1  1
  5 52  1  0
  6 53  1  1
  7 54  1  0
  7 55  1  0
  8 56  1  0
  8 57  1  0
 10 58  1  0
 11 59  1  0
 12 60  1  0
 13 61  1  0
 14 62  1  0
 17 63  1  0
 21 64  1  0
 21 65  1  0
 22 66  1  6
 23 67  1  0
 26 68  1  0
 26 69  1  0
 27 70  1  6
 28 71  1  0
 28 72  1  0
 29 73  1  0
 29 74  1  0
 31 75  1  0
 36 76  1  0
 39 77  1  0
 39 78  1  0
 40 79  1  6
 43 80  1  0
M  END
$$$$
