
     RDKit          3D

 54 57  0  0  0  0  0  0  0  0999 V2000
   -1.3911    1.8332    0.3025 N   0  0  0  0  0  0  0  0  0  0  0  0
   -1.6726    0.3938    0.3711 C   0  0  1  0  0  0  0  0  0  0  0  0
   -0.4453   -0.3252    0.9866 C   0  0  0  0  0  0  0  0  0  0  0  0
   -0.4832   -1.8782    1.0780 C   0  0  0  0  0  0  0  0  0  0  0  0
   -0.2576   -2.6496   -0.1755 N   0  0  0  0  0  0  0  0  0  0  0  0
   -1.3992   -2.6441   -1.1027 C   0  0  0  0  0  0  0  0  0  0  0  0
   -0.9523   -1.9657   -2.4013 C   0  0  0  0  0  0  0  0  0  0  0  0
    0.4656   -1.4852   -2.1460 C   0  0  0  0  0  0  0  0  0  0  0  0
    0.9353   -2.3596   -0.9932 C   0  0  1  0  0  0  0  0  0  0  0  0
    2.1335   -1.8380   -0.2372 C   0  0  0  0  0  0  0  0  0  0  0  0
    2.7188   -2.5106    0.7772 N   0  0  0  0  0  0  0  0  0  0  0  0
    3.7501   -1.7066    1.1007 C   0  0  0  0  0  0  0  0  0  0  0  0
    3.7899   -0.6148    0.3105 N   0  0  0  0  0  0  0  0  0  0  0  0
    4.7298    0.4787    0.3459 C   0  0  0  0  0  0  0  0  0  0  0  0
    5.8943    0.4201    1.1381 C   0  0  0  0  0  0  0  0  0  0  0  0
    6.7923    1.4920    1.1578 C   0  0  0  0  0  0  0  0  0  0  0  0
    6.5430    2.6311    0.3899 C   0  0  0  0  0  0  0  0  0  0  0  0
    5.3953    2.7007   -0.4018 C   0  0  0  0  0  0  0  0  0  0  0  0
    4.4941    1.6322   -0.4263 C   0  0  0  0  0  0  0  0  0  0  0  0
    2.7808   -0.6950   -0.5387 N   0  0  0  0  0  0  0  0  0  0  0  0
   -2.9553    0.1530    1.2029 C   0  0  0  0  0  0  0  0  0  0  0  0
   -4.1685    0.7965    0.5743 C   0  0  0  0  0  0  0  0  0  0  0  0
   -4.7803    0.1923   -0.5379 C   0  0  0  0  0  0  0  0  0  0  0  0
   -5.8899    0.7879   -1.1443 C   0  0  0  0  0  0  0  0  0  0  0  0
   -6.3955    1.9924   -0.6499 C   0  0  0  0  0  0  0  0  0  0  0  0
   -5.7909    2.6051    0.4505 C   0  0  0  0  0  0  0  0  0  0  0  0
   -4.6800    2.0148    1.0625 C   0  0  0  0  0  0  0  0  0  0  0  0
   -4.1015    2.6358    2.1216 F   0  0  0  0  0  0  0  0  0  0  0  0
   -0.5128    1.9792   -0.2469 H   0  0  0  0  0  0  0  0  0  0  0  0
   -2.1387    2.2976   -0.2619 H   0  0  0  0  0  0  0  0  0  0  0  0
   -1.8310    0.0306   -0.6609 H   0  0  0  0  0  0  0  0  0  0  0  0
    0.4648    0.0021    0.4560 H   0  0  0  0  0  0  0  0  0  0  0  0
   -0.3236    0.0588    2.0235 H   0  0  0  0  0  0  0  0  0  0  0  0
    0.2990   -2.1815    1.8050 H   0  0  0  0  0  0  0  0  0  0  0  0
   -1.4212   -2.2211    1.5574 H   0  0  0  0  0  0  0  0  0  0  0  0
   -2.3021   -2.1596   -0.6785 H   0  0  0  0  0  0  0  0  0  0  0  0
   -1.6805   -3.6975   -1.3181 H   0  0  0  0  0  0  0  0  0  0  0  0
   -1.6204   -1.1217   -2.6764 H   0  0  0  0  0  0  0  0  0  0  0  0
   -0.9536   -2.7047   -3.2328 H   0  0  0  0  0  0  0  0  0  0  0  0
    1.1080   -1.6142   -3.0444 H   0  0  0  0  0  0  0  0  0  0  0  0
    0.4477   -0.4125   -1.8575 H   0  0  0  0  0  0  0  0  0  0  0  0
    1.2650   -3.3258   -1.4382 H   0  0  0  0  0  0  0  0  0  0  0  0
    4.4413   -1.9238    1.9025 H   0  0  0  0  0  0  0  0  0  0  0  0
    6.1233   -0.4508    1.7347 H   0  0  0  0  0  0  0  0  0  0  0  0
    7.6847    1.4379    1.7680 H   0  0  0  0  0  0  0  0  0  0  0  0
    7.2399    3.4590    0.4072 H   0  0  0  0  0  0  0  0  0  0  0  0
    5.2030    3.5838   -0.9974 H   0  0  0  0  0  0  0  0  0  0  0  0
    3.6091    1.7099   -1.0447 H   0  0  0  0  0  0  0  0  0  0  0  0
   -2.8041    0.5276    2.2385 H   0  0  0  0  0  0  0  0  0  0  0  0
   -3.1672   -0.9311    1.2877 H   0  0  0  0  0  0  0  0  0  0  0  0
   -4.3966   -0.7388   -0.9357 H   0  0  0  0  0  0  0  0  0  0  0  0
   -6.3567    0.3161   -1.9993 H   0  0  0  0  0  0  0  0  0  0  0  0
   -7.2542    2.4527   -1.1214 H   0  0  0  0  0  0  0  0  0  0  0  0
   -6.1826    3.5411    0.8276 H   0  0  0  0  0  0  0  0  0  0  0  0
  1  2  1  0
  2  3  1  0
  3  4  1  0
  4  5  1  0
  5  6  1  0
  6  7  1  0
  7  8  1  0
  8  9  1  0
  9 10  1  0
 10 11  1  0
 11 12  2  0
 12 13  1  0
 13 14  1  0
 14 15  2  0
 15 16  1  0
 16 17  2  0
 17 18  1  0
 18 19  2  0
 13 20  1  0
  2 21  1  0
 21 22  1  0
 22 23  2  0
 23 24  1  0
 24 25  2  0
 25 26  1  0
 26 27  2  0
 27 28  1  0
  9  5  1  0
 20 10  2  0
 27 22  1  0
 19 14  1  0
  1 29  1  0
  1 30  1  0
  2 31  1  6
  3 32  1  0
  3 33  1  0
  4 34  1  0
  4 35  1  0
  6 36  1  0
  6 37  1  0
  7 38  1  0
  7 39  1  0
  8 40  1  0
  8 41  1  0
  9 42  1  6
 12 43  1  0
 15 44  1  0
 16 45  1  0
 17 46  1  0
 18 47  1  0
 19 48  1  0
 21 49  1  0
 21 50  1  0
 23 51  1  0
 24 52  1  0
 25 53  1  0
 26 54  1  0
M  END
$$$$
