
     RDKit          3D

 29 29  0  0  0  0  0  0  0  0999 V2000
    2.8235    1.6087    0.2533 N   0  0  0  0  0  0  0  0  0  0  0  0
    3.1760    0.1968    0.1305 C   0  0  0  0  0  0  0  0  0  0  0  0
    1.9318   -0.6940    0.2824 C   0  0  2  0  0  0  0  0  0  0  0  0
    2.3300   -2.1032    0.2681 N   0  0  0  0  0  0  0  0  0  0  0  0
    0.9206   -0.4204   -0.8113 C   0  0  0  0  0  0  0  0  0  0  0  0
    1.2586   -0.5789   -2.0168 O   0  0  0  0  0  0  0  0  0  0  0  0
   -0.4359   -0.0563   -0.4969 N   0  0  0  0  0  0  0  0  0  0  0  0
   -1.5225   -0.5350   -1.3610 C   0  0  0  0  0  0  0  0  0  0  0  0
   -2.7864   -0.7904   -0.5338 C   0  0  0  0  0  0  0  0  0  0  0  0
   -3.1445    0.4356    0.3125 C   0  0  0  0  0  0  0  0  0  0  0  0
   -1.9689    0.8384    1.2087 C   0  0  0  0  0  0  0  0  0  0  0  0
   -0.7120    1.0953    0.3731 C   0  0  0  0  0  0  0  0  0  0  0  0
    3.6786    2.1702    0.0367 H   0  0  0  0  0  0  0  0  0  0  0  0
    2.5908    1.8005    1.2549 H   0  0  0  0  0  0  0  0  0  0  0  0
    3.6480    0.0196   -0.8615 H   0  0  0  0  0  0  0  0  0  0  0  0
    3.9211   -0.0699    0.9137 H   0  0  0  0  0  0  0  0  0  0  0  0
    1.4782   -0.4889    1.2757 H   0  0  0  0  0  0  0  0  0  0  0  0
    2.7169   -2.3502   -0.6724 H   0  0  0  0  0  0  0  0  0  0  0  0
    1.4792   -2.6930    0.4209 H   0  0  0  0  0  0  0  0  0  0  0  0
   -1.2330   -1.4850   -1.8620 H   0  0  0  0  0  0  0  0  0  0  0  0
   -1.7314    0.2239   -2.1463 H   0  0  0  0  0  0  0  0  0  0  0  0
   -3.6315   -1.0307   -1.2142 H   0  0  0  0  0  0  0  0  0  0  0  0
   -2.6201   -1.6652    0.1327 H   0  0  0  0  0  0  0  0  0  0  0  0
   -4.0261    0.1997    0.9465 H   0  0  0  0  0  0  0  0  0  0  0  0
   -3.4168    1.2842   -0.3533 H   0  0  0  0  0  0  0  0  0  0  0  0
   -1.7648    0.0280    1.9426 H   0  0  0  0  0  0  0  0  0  0  0  0
   -2.2322    1.7585    1.7737 H   0  0  0  0  0  0  0  0  0  0  0  0
   -0.8604    1.9999   -0.2560 H   0  0  0  0  0  0  0  0  0  0  0  0
    0.1331    1.3020    1.0595 H   0  0  0  0  0  0  0  0  0  0  0  0
  1  2  1  0
  2  3  1  0
  3  4  1  0
  3  5  1  0
  5  6  2  0
  5  7  1  0
  7  8  1  0
  8  9  1  0
  9 10  1  0
 10 11  1  0
 11 12  1  0
 12  7  1  0
  1 13  1  0
  1 14  1  0
  2 15  1  0
  2 16  1  0
  3 17  1  1
  4 18  1  0
  4 19  1  0
  8 20  1  0
  8 21  1  0
  9 22  1  0
  9 23  1  0
 10 24  1  0
 10 25  1  0
 11 26  1  0
 11 27  1  0
 12 28  1  0
 12 29  1  0
M  END
$$$$
