
     RDKit          3D

 44 46  0  0  0  0  0  0  0  0999 V2000
   -4.6457   -3.6716    1.3210 N   0  0  0  0  0  0  0  0  0  0  0  0
   -4.8008   -2.5269    1.3897 C   0  0  0  0  0  0  0  0  0  0  0  0
   -4.9974   -1.0697    1.4768 C   0  0  2  0  0  0  0  0  0  0  0  0
   -6.4845   -0.7107    1.4311 C   0  0  0  0  0  0  0  0  0  0  0  0
   -6.5928    0.4891    0.4942 C   0  0  0  0  0  0  0  0  0  0  0  0
   -5.3380    0.4616   -0.3678 C   0  0  0  0  0  0  0  0  0  0  0  0
   -4.3964   -0.3969    0.3330 N   0  0  0  0  0  0  0  0  0  0  0  0
   -2.9904   -0.4536    0.0231 C   0  0  0  0  0  0  0  0  0  0  0  0
   -2.2023   -1.0457    0.8108 O   0  0  0  0  0  0  0  0  0  0  0  0
   -2.4488    0.2144   -1.2136 C   0  0  0  0  0  0  0  0  0  0  0  0
   -1.0825   -0.2218   -1.5002 N   0  0  0  0  0  0  0  0  0  0  0  0
    0.0615    0.3754   -0.8668 C   0  0  0  0  0  0  0  0  0  0  0  0
   -0.1082    1.2365    0.0400 O   0  0  0  0  0  0  0  0  0  0  0  0
    1.4403   -0.0173   -1.2463 C   0  0  0  0  0  0  0  0  0  0  0  0
    1.7202   -0.5420   -2.5201 C   0  0  0  0  0  0  0  0  0  0  0  0
    3.0235   -0.9057   -2.8636 C   0  0  0  0  0  0  0  0  0  0  0  0
    4.0637   -0.7465   -1.9470 C   0  0  0  0  0  0  0  0  0  0  0  0
    3.8126   -0.2126   -0.6715 C   0  0  0  0  0  0  0  0  0  0  0  0
    4.9199   -0.0366    0.3029 C   0  0  0  0  0  0  0  0  0  0  0  0
    4.9918    1.1192    1.1037 C   0  0  0  0  0  0  0  0  0  0  0  0
    6.0355    1.2823    2.0198 C   0  0  0  0  0  0  0  0  0  0  0  0
    7.0164    0.2965    2.1478 C   0  0  0  0  0  0  0  0  0  0  0  0
    6.9562   -0.8547    1.3593 C   0  0  0  0  0  0  0  0  0  0  0  0
    5.9154   -1.0227    0.4409 C   0  0  0  0  0  0  0  0  0  0  0  0
    2.4964    0.1524   -0.3319 C   0  0  0  0  0  0  0  0  0  0  0  0
   -4.5389   -0.6877    2.4148 H   0  0  0  0  0  0  0  0  0  0  0  0
   -6.8674   -0.4610    2.4447 H   0  0  0  0  0  0  0  0  0  0  0  0
   -7.0954   -1.5440    1.0147 H   0  0  0  0  0  0  0  0  0  0  0  0
   -7.5124    0.4370   -0.1284 H   0  0  0  0  0  0  0  0  0  0  0  0
   -6.6121    1.4257    1.0942 H   0  0  0  0  0  0  0  0  0  0  0  0
   -5.5600    0.0319   -1.3684 H   0  0  0  0  0  0  0  0  0  0  0  0
   -4.9272    1.4887   -0.4776 H   0  0  0  0  0  0  0  0  0  0  0  0
   -2.4798    1.3179   -1.0895 H   0  0  0  0  0  0  0  0  0  0  0  0
   -3.0950   -0.0488   -2.0778 H   0  0  0  0  0  0  0  0  0  0  0  0
   -0.9613   -1.0659   -2.1028 H   0  0  0  0  0  0  0  0  0  0  0  0
    0.9418   -0.6507   -3.2633 H   0  0  0  0  0  0  0  0  0  0  0  0
    3.2300   -1.3036   -3.8488 H   0  0  0  0  0  0  0  0  0  0  0  0
    5.0686   -1.0196   -2.2438 H   0  0  0  0  0  0  0  0  0  0  0  0
    4.2519    1.9040    1.0090 H   0  0  0  0  0  0  0  0  0  0  0  0
    6.0854    2.1758    2.6287 H   0  0  0  0  0  0  0  0  0  0  0  0
    7.8232    0.4246    2.8578 H   0  0  0  0  0  0  0  0  0  0  0  0
    7.7151   -1.6197    1.4620 H   0  0  0  0  0  0  0  0  0  0  0  0
    5.8792   -1.9306   -0.1481 H   0  0  0  0  0  0  0  0  0  0  0  0
    2.2887    0.5422    0.6573 H   0  0  0  0  0  0  0  0  0  0  0  0
  1  2  3  0
  2  3  1  0
  3  4  1  0
  4  5  1  0
  5  6  1  0
  6  7  1  0
  7  8  1  0
  8  9  2  0
  8 10  1  0
 10 11  1  0
 11 12  1  0
 12 13  2  0
 12 14  1  0
 14 15  2  0
 15 16  1  0
 16 17  2  0
 17 18  1  0
 18 19  1  0
 19 20  2  0
 20 21  1  0
 21 22  2  0
 22 23  1  0
 23 24  2  0
 18 25  2  0
  7  3  1  0
 25 14  1  0
 24 19  1  0
  3 26  1  1
  4 27  1  0
  4 28  1  0
  5 29  1  0
  5 30  1  0
  6 31  1  0
  6 32  1  0
 10 33  1  0
 10 34  1  0
 11 35  1  0
 15 36  1  0
 16 37  1  0
 17 38  1  0
 20 39  1  0
 21 40  1  0
 22 41  1  0
 23 42  1  0
 24 43  1  0
 25 44  1  0
M  END
$$$$
