
     RDKit          3D

 56 58  0  0  0  0  0  0  0  0999 V2000
    0.6878    0.0000    0.0000 Cl  0  0  0  0  0  0  0  0  0  0  0  0
   -7.7241    1.0740   -2.3712 N   0  0  0  0  0  0  0  0  0  0  0  0
   -7.3750    1.0398   -1.2684 C   0  0  0  0  0  0  0  0  0  0  0  0
   -6.9301    0.9958    0.1340 C   0  0  2  0  0  0  0  0  0  0  0  0
   -7.1880    2.3272    0.8391 C   0  0  0  0  0  0  0  0  0  0  0  0
   -5.8475    3.0559    0.8511 C   0  0  0  0  0  0  0  0  0  0  0  0
   -4.7855    1.9767    0.6818 C   0  0  0  0  0  0  0  0  0  0  0  0
   -5.4884    0.8013    0.1892 N   0  0  0  0  0  0  0  0  0  0  0  0
   -4.8578   -0.4680   -0.0772 C   0  0  0  0  0  0  0  0  0  0  0  0
   -5.5747   -1.4614   -0.3809 O   0  0  0  0  0  0  0  0  0  0  0  0
   -3.3653   -0.6531    0.0802 C   0  0  1  0  0  0  0  0  0  0  0  0
   -3.0733   -0.9764    1.4787 N   0  0  0  0  0  0  0  0  0  0  0  0
   -2.8249   -1.7362   -0.8834 C   0  0  0  0  0  0  0  0  0  0  0  0
   -1.3183   -1.7933   -0.8738 C   0  0  0  0  0  0  0  0  0  0  0  0
   -0.6474   -2.7600   -0.1103 C   0  0  0  0  0  0  0  0  0  0  0  0
    0.7495   -2.7935   -0.0822 C   0  0  0  0  0  0  0  0  0  0  0  0
    1.5022   -1.8575   -0.8130 C   0  0  0  0  0  0  0  0  0  0  0  0
    2.9827   -1.9050   -0.7713 C   0  0  0  0  0  0  0  0  0  0  0  0
    3.8755   -1.0634   -1.4091 C   0  0  0  0  0  0  0  0  0  0  0  0
    5.1019   -1.4945   -1.0705 N   0  0  0  0  0  0  0  0  0  0  0  0
    6.3730   -0.8809   -1.4361 C   0  0  0  0  0  0  0  0  0  0  0  0
    6.7116    0.2112   -0.4604 C   0  0  0  0  0  0  0  0  0  0  0  0
    6.2713    1.5253   -0.6878 C   0  0  0  0  0  0  0  0  0  0  0  0
    6.5514    2.5321    0.2412 C   0  0  0  0  0  0  0  0  0  0  0  0
    7.2622    2.2325    1.4072 C   0  0  0  0  0  0  0  0  0  0  0  0
    7.5300    3.2117    2.3062 F   0  0  0  0  0  0  0  0  0  0  0  0
    7.6902    0.9227    1.6478 C   0  0  0  0  0  0  0  0  0  0  0  0
    8.3714    0.6280    2.7827 F   0  0  0  0  0  0  0  0  0  0  0  0
    7.4113   -0.0867    0.7204 C   0  0  0  0  0  0  0  0  0  0  0  0
    4.9769   -2.5300   -0.2571 N   0  0  0  0  0  0  0  0  0  0  0  0
    3.6959   -2.8069   -0.0623 N   0  0  0  0  0  0  0  0  0  0  0  0
    0.8252   -0.8855   -1.5722 C   0  0  0  0  0  0  0  0  0  0  0  0
   -0.5720   -0.8531   -1.5991 C   0  0  0  0  0  0  0  0  0  0  0  0
   -0.6878    0.0000    0.0000 H   0  0  0  0  0  0  0  0  0  0  0  0
   -7.4563    0.1736    0.6665 H   0  0  0  0  0  0  0  0  0  0  0  0
   -7.5003    2.1290    1.8883 H   0  0  0  0  0  0  0  0  0  0  0  0
   -7.9779    2.9389    0.3485 H   0  0  0  0  0  0  0  0  0  0  0  0
   -5.7032    3.6229    1.7964 H   0  0  0  0  0  0  0  0  0  0  0  0
   -5.8038    3.7613   -0.0079 H   0  0  0  0  0  0  0  0  0  0  0  0
   -4.3079    1.7465    1.6589 H   0  0  0  0  0  0  0  0  0  0  0  0
   -4.0190    2.3089   -0.0509 H   0  0  0  0  0  0  0  0  0  0  0  0
   -2.8623    0.3031   -0.1777 H   0  0  0  0  0  0  0  0  0  0  0  0
   -2.0420   -0.9106    1.6378 H   0  0  0  0  0  0  0  0  0  0  0  0
   -3.3654   -1.9610    1.6794 H   0  0  0  0  0  0  0  0  0  0  0  0
   -3.2472   -2.7310   -0.6191 H   0  0  0  0  0  0  0  0  0  0  0  0
   -3.1650   -1.5089   -1.9182 H   0  0  0  0  0  0  0  0  0  0  0  0
   -1.2059   -3.4858    0.4678 H   0  0  0  0  0  0  0  0  0  0  0  0
    1.2403   -3.5515    0.5153 H   0  0  0  0  0  0  0  0  0  0  0  0
    3.6673   -0.2129   -2.0444 H   0  0  0  0  0  0  0  0  0  0  0  0
    6.3102   -0.4719   -2.4685 H   0  0  0  0  0  0  0  0  0  0  0  0
    7.1725   -1.6536   -1.4409 H   0  0  0  0  0  0  0  0  0  0  0  0
    5.7103    1.7688   -1.5816 H   0  0  0  0  0  0  0  0  0  0  0  0
    6.2133    3.5440    0.0581 H   0  0  0  0  0  0  0  0  0  0  0  0
    7.7378   -1.0996    0.9219 H   0  0  0  0  0  0  0  0  0  0  0  0
    1.3680   -0.1466   -2.1452 H   0  0  0  0  0  0  0  0  0  0  0  0
   -1.0737   -0.0925   -2.1847 H   0  0  0  0  0  0  0  0  0  0  0  0
  2  3  3  0
  3  4  1  0
  4  5  1  0
  5  6  1  0
  6  7  1  0
  7  8  1  0
  8  9  1  0
  9 10  2  0
  9 11  1  0
 11 12  1  0
 11 13  1  0
 13 14  1  0
 14 15  2  0
 15 16  1  0
 16 17  2  0
 17 18  1  0
 18 19  2  0
 19 20  1  0
 20 21  1  0
 21 22  1  0
 22 23  2  0
 23 24  1  0
 24 25  2  0
 25 26  1  0
 25 27  1  0
 27 28  1  0
 27 29  2  0
 20 30  1  0
 30 31  2  0
 17 32  1  0
 32 33  2  0
  8  4  1  0
 33 14  1  0
 31 18  1  0
 29 22  1  0
  1 34  1  0
  4 35  1  1
  5 36  1  0
  5 37  1  0
  6 38  1  0
  6 39  1  0
  7 40  1  0
  7 41  1  0
 11 42  1  6
 12 43  1  0
 12 44  1  0
 13 45  1  0
 13 46  1  0
 15 47  1  0
 16 48  1  0
 19 49  1  0
 21 50  1  0
 21 51  1  0
 23 52  1  0
 24 53  1  0
 29 54  1  0
 32 55  1  0
 33 56  1  0
M  END
$$$$
