
     RDKit          3D

 49 53  0  0  0  0  0  0  0  0999 V2000
   -0.5646   -2.7437   -1.2760 C   0  0  0  0  0  0  0  0  0  0  0  0
   -1.1145   -1.4282   -0.8101 C   0  0  0  0  0  0  0  0  0  0  0  0
   -0.5701   -0.1752   -1.0596 C   0  0  0  0  0  0  0  0  0  0  0  0
    0.6736    0.1564   -1.7755 C   0  0  0  0  0  0  0  0  0  0  0  0
    1.9638   -0.1092   -1.2481 C   0  0  0  0  0  0  0  0  0  0  0  0
    2.2159   -0.7924    0.3668 S   0  0  0  0  0  0  0  0  0  0  0  0
    1.0997   -0.4034    1.2955 O   0  0  0  0  0  0  0  0  0  0  0  0
    2.2692   -2.2913    0.2715 O   0  0  0  0  0  0  0  0  0  0  0  0
    3.7189   -0.1775    1.0509 C   0  0  0  0  0  0  0  0  0  0  0  0
    3.7971    1.1596    1.4658 C   0  0  0  0  0  0  0  0  0  0  0  0
    4.9896    1.6629    1.9947 C   0  0  0  0  0  0  0  0  0  0  0  0
    6.1096    0.8343    2.1085 C   0  0  0  0  0  0  0  0  0  0  0  0
    6.0384   -0.4982    1.6916 C   0  0  0  0  0  0  0  0  0  0  0  0
    4.8470   -1.0044    1.1622 C   0  0  0  0  0  0  0  0  0  0  0  0
    3.0910    0.2120   -2.0472 C   0  0  0  0  0  0  0  0  0  0  0  0
    2.9413    0.7852   -3.2777 N   0  0  0  0  0  0  0  0  0  0  0  0
    1.6893    1.0400   -3.7188 C   0  0  0  0  0  0  0  0  0  0  0  0
    1.3466    1.5855   -4.8957 N   0  0  0  0  0  0  0  0  0  0  0  0
    0.0137    1.6033   -4.8588 N   0  0  0  0  0  0  0  0  0  0  0  0
   -0.4335    1.0905   -3.7144 N   0  0  0  0  0  0  0  0  0  0  0  0
    0.6164    0.7396   -2.9978 N   0  0  0  0  0  0  0  0  0  0  0  0
   -1.4710    0.7091   -0.5072 C   0  0  0  0  0  0  0  0  0  0  0  0
   -1.3558    1.9644   -0.4978 O   0  0  0  0  0  0  0  0  0  0  0  0
   -2.4897    0.0308    0.0576 N   0  0  0  0  0  0  0  0  0  0  0  0
   -3.5979    0.6130    0.7664 C   0  0  0  0  0  0  0  0  0  0  0  0
   -4.3756    1.6140    0.1623 C   0  0  0  0  0  0  0  0  0  0  0  0
   -5.4457    2.1888    0.8550 C   0  0  0  0  0  0  0  0  0  0  0  0
   -5.7413    1.7735    2.1565 C   0  0  0  0  0  0  0  0  0  0  0  0
   -4.9648    0.7852    2.7681 C   0  0  0  0  0  0  0  0  0  0  0  0
   -3.8942    0.2083    2.0780 C   0  0  0  0  0  0  0  0  0  0  0  0
   -2.2836   -1.2694   -0.1409 N   0  0  0  0  0  0  0  0  0  0  0  0
   -3.1748   -2.3462    0.2991 C   0  0  0  0  0  0  0  0  0  0  0  0
   -1.2515   -3.1879   -2.0257 H   0  0  0  0  0  0  0  0  0  0  0  0
   -0.4654   -3.4331   -0.4120 H   0  0  0  0  0  0  0  0  0  0  0  0
    0.4313   -2.6161   -1.7476 H   0  0  0  0  0  0  0  0  0  0  0  0
    2.9367    1.8109    1.3757 H   0  0  0  0  0  0  0  0  0  0  0  0
    5.0462    2.6954    2.3143 H   0  0  0  0  0  0  0  0  0  0  0  0
    7.0325    1.2249    2.5171 H   0  0  0  0  0  0  0  0  0  0  0  0
    6.9072   -1.1381    1.7766 H   0  0  0  0  0  0  0  0  0  0  0  0
    4.8088   -2.0358    0.8368 H   0  0  0  0  0  0  0  0  0  0  0  0
    4.0899    0.0089   -1.6859 H   0  0  0  0  0  0  0  0  0  0  0  0
   -4.1581    1.9390   -0.8473 H   0  0  0  0  0  0  0  0  0  0  0  0
   -6.0458    2.9559    0.3829 H   0  0  0  0  0  0  0  0  0  0  0  0
   -6.5692    2.2197    2.6920 H   0  0  0  0  0  0  0  0  0  0  0  0
   -5.1895    0.4697    3.7787 H   0  0  0  0  0  0  0  0  0  0  0  0
   -3.2881   -0.5421    2.5687 H   0  0  0  0  0  0  0  0  0  0  0  0
   -3.1238   -3.2070   -0.3992 H   0  0  0  0  0  0  0  0  0  0  0  0
   -4.2280   -1.9970    0.3166 H   0  0  0  0  0  0  0  0  0  0  0  0
   -2.8774   -2.6846    1.3131 H   0  0  0  0  0  0  0  0  0  0  0  0
  1  2  1  0
  2  3  2  0
  3  4  1  0
  4  5  2  0
  5  6  1  0
  6  7  2  0
  6  8  2  0
  6  9  1  0
  9 10  2  0
 10 11  1  0
 11 12  2  0
 12 13  1  0
 13 14  2  0
  5 15  1  0
 15 16  2  0
 16 17  1  0
 17 18  2  0
 18 19  1  0
 19 20  2  0
 20 21  1  0
  3 22  1  0
 22 23  2  0
 22 24  1  0
 24 25  1  0
 25 26  2  0
 26 27  1  0
 27 28  2  0
 28 29  1  0
 29 30  2  0
 24 31  1  0
 31 32  1  0
 31  2  1  0
 21  4  1  0
 30 25  1  0
 14  9  1  0
 21 17  1  0
  1 33  1  0
  1 34  1  0
  1 35  1  0
 10 36  1  0
 11 37  1  0
 12 38  1  0
 13 39  1  0
 14 40  1  0
 15 41  1  0
 26 42  1  0
 27 43  1  0
 28 44  1  0
 29 45  1  0
 30 46  1  0
 32 47  1  0
 32 48  1  0
 32 49  1  0
M  END
$$$$
