
     RDKit          3D

 55 57  0  0  0  0  0  0  0  0999 V2000
   -5.1762   -2.1758   -0.3492 C   0  0  0  0  0  0  0  0  0  0  0  0
   -3.7562   -1.7820    0.1117 C   0  0  0  0  0  0  0  0  0  0  0  0
   -3.0054   -3.0717    0.5122 C   0  0  0  0  0  0  0  0  0  0  0  0
   -3.8790   -0.8625    1.3432 C   0  0  0  0  0  0  0  0  0  0  0  0
   -3.0463   -1.0440   -1.0675 C   0  0  0  0  0  0  0  0  0  0  0  0
   -1.6357   -0.5624   -0.7639 C   0  0  0  0  0  0  0  0  0  0  0  0
   -0.6827   -1.5166   -0.6043 N   0  0  0  0  0  0  0  0  0  0  0  0
    0.6038   -1.2386   -0.2910 C   0  0  0  0  0  0  0  0  0  0  0  0
    1.5129   -2.2878   -0.1292 C   0  0  0  0  0  0  0  0  0  0  0  0
    2.8375   -2.0247    0.2208 C   0  0  0  0  0  0  0  0  0  0  0  0
    3.2689   -0.7005    0.4162 C   0  0  0  0  0  0  0  0  0  0  0  0
    4.5893   -0.3796    0.7728 O   0  0  0  0  0  0  0  0  0  0  0  0
    5.6566   -1.3169    0.9152 C   0  0  0  0  0  0  0  0  0  0  0  0
    6.0791   -1.8454   -0.4229 C   0  0  0  0  0  0  0  0  0  0  0  0
    6.2327   -3.2487   -0.6347 N   0  0  0  0  0  0  0  0  0  0  0  0
    6.3263   -1.0421   -1.3614 O   0  0  0  0  0  0  0  0  0  0  0  0
    2.3556    0.3483    0.2550 C   0  0  0  0  0  0  0  0  0  0  0  0
    1.0139    0.0954   -0.1071 C   0  0  0  0  0  0  0  0  0  0  0  0
    0.0672    1.1308   -0.2950 C   0  0  0  0  0  0  0  0  0  0  0  0
    0.4741    2.5418   -0.1021 C   0  0  0  0  0  0  0  0  0  0  0  0
    1.1332    3.2329   -1.1306 C   0  0  0  0  0  0  0  0  0  0  0  0
    1.5170    4.5646   -0.9456 C   0  0  0  0  0  0  0  0  0  0  0  0
    1.2462    5.2099    0.2648 C   0  0  0  0  0  0  0  0  0  0  0  0
    0.5923    4.5239    1.2929 C   0  0  0  0  0  0  0  0  0  0  0  0
    0.2076    3.1919    1.1120 C   0  0  0  0  0  0  0  0  0  0  0  0
   -1.2683    0.8103   -0.6684 C   0  0  0  0  0  0  0  0  0  0  0  0
   -2.2639    1.9173   -0.9833 C   0  0  0  0  0  0  0  0  0  0  0  0
   -3.2076    2.0834    0.1151 N   0  0  0  0  0  0  0  0  0  0  0  0
   -5.7292   -2.6916    0.4657 H   0  0  0  0  0  0  0  0  0  0  0  0
   -5.1278   -2.8604   -1.2237 H   0  0  0  0  0  0  0  0  0  0  0  0
   -5.7597   -1.2764   -0.6433 H   0  0  0  0  0  0  0  0  0  0  0  0
   -3.6200   -3.6837    1.2074 H   0  0  0  0  0  0  0  0  0  0  0  0
   -2.7777   -3.6888   -0.3834 H   0  0  0  0  0  0  0  0  0  0  0  0
   -2.0581   -2.8407    1.0420 H   0  0  0  0  0  0  0  0  0  0  0  0
   -2.8797   -0.5199    1.6867 H   0  0  0  0  0  0  0  0  0  0  0  0
   -4.5003    0.0263    1.1069 H   0  0  0  0  0  0  0  0  0  0  0  0
   -4.3645   -1.4017    2.1854 H   0  0  0  0  0  0  0  0  0  0  0  0
   -2.9814   -1.7335   -1.9378 H   0  0  0  0  0  0  0  0  0  0  0  0
   -3.7000   -0.2173   -1.4025 H   0  0  0  0  0  0  0  0  0  0  0  0
    1.1915   -3.3129   -0.2687 H   0  0  0  0  0  0  0  0  0  0  0  0
    3.5132   -2.8590    0.3422 H   0  0  0  0  0  0  0  0  0  0  0  0
    5.3586   -2.1368    1.6030 H   0  0  0  0  0  0  0  0  0  0  0  0
    6.5233   -0.7971    1.3737 H   0  0  0  0  0  0  0  0  0  0  0  0
    6.5328   -3.6102   -1.5671 H   0  0  0  0  0  0  0  0  0  0  0  0
    6.0466   -3.9299    0.1344 H   0  0  0  0  0  0  0  0  0  0  0  0
    2.7109    1.3582    0.4145 H   0  0  0  0  0  0  0  0  0  0  0  0
    1.3464    2.7402   -2.0712 H   0  0  0  0  0  0  0  0  0  0  0  0
    2.0242    5.0963   -1.7402 H   0  0  0  0  0  0  0  0  0  0  0  0
    1.5438    6.2408    0.4065 H   0  0  0  0  0  0  0  0  0  0  0  0
    0.3849    5.0240    2.2300 H   0  0  0  0  0  0  0  0  0  0  0  0
   -0.2945    2.6667    1.9152 H   0  0  0  0  0  0  0  0  0  0  0  0
   -1.7667    2.8881   -1.1909 H   0  0  0  0  0  0  0  0  0  0  0  0
   -2.8078    1.6861   -1.9226 H   0  0  0  0  0  0  0  0  0  0  0  0
   -3.9100    2.8028   -0.1720 H   0  0  0  0  0  0  0  0  0  0  0  0
   -2.6916    2.4790    0.9339 H   0  0  0  0  0  0  0  0  0  0  0  0
  1  2  1  0
  2  3  1  0
  2  4  1  0
  2  5  1  0
  5  6  1  0
  6  7  2  0
  7  8  1  0
  8  9  2  0
  9 10  1  0
 10 11  2  0
 11 12  1  0
 12 13  1  0
 13 14  1  0
 14 15  1  0
 14 16  2  0
 11 17  1  0
 17 18  2  0
 18 19  1  0
 19 20  1  0
 20 21  2  0
 21 22  1  0
 22 23  2  0
 23 24  1  0
 24 25  2  0
 19 26  2  0
 26 27  1  0
 27 28  1  0
 26  6  1  0
 18  8  1  0
 25 20  1  0
  1 29  1  0
  1 30  1  0
  1 31  1  0
  3 32  1  0
  3 33  1  0
  3 34  1  0
  4 35  1  0
  4 36  1  0
  4 37  1  0
  5 38  1  0
  5 39  1  0
  9 40  1  0
 10 41  1  0
 13 42  1  0
 13 43  1  0
 15 44  1  0
 15 45  1  0
 17 46  1  0
 21 47  1  0
 22 48  1  0
 23 49  1  0
 24 50  1  0
 25 51  1  0
 27 52  1  0
 27 53  1  0
 28 54  1  0
 28 55  1  0
M  END
$$$$
