
     RDKit          3D

 48 48  0  0  0  0  0  0  0  0999 V2000
    3.9877    0.1074   -1.8529 C   0  0  0  0  0  0  0  0  0  0  0  0
    2.5320   -0.3345   -1.6235 C   0  0  0  0  0  0  0  0  0  0  0  0
    1.9392    0.1454   -0.3477 N   0  0  0  0  0  0  0  0  0  0  0  0
    2.0964    1.6126   -0.1954 C   0  0  0  0  0  0  0  0  0  0  0  0
    1.0502    2.2066    0.7454 C   0  0  0  0  0  0  0  0  0  0  0  0
    2.4180   -0.6223    0.8323 C   0  0  0  0  0  0  0  0  0  0  0  0
    1.3845   -1.6866    1.3372 C   0  0  0  0  0  0  0  0  0  0  0  0
    1.2133   -2.8388    0.3144 C   0  0  0  0  0  0  0  0  0  0  0  0
    1.9646   -2.3162    2.6206 C   0  0  0  0  0  0  0  0  0  0  0  0
    0.0862   -1.0711    1.7215 N   0  0  0  0  0  0  0  0  0  0  0  0
   -0.9105   -0.9177    0.6447 C   0  0  0  0  0  0  0  0  0  0  0  0
   -2.0785   -0.0739    1.0897 C   0  0  0  0  0  0  0  0  0  0  0  0
   -2.3316    0.0309    2.3214 O   0  0  0  0  0  0  0  0  0  0  0  0
   -2.9538    0.5550    0.1325 N   0  0  0  0  0  0  0  0  0  0  0  0
   -4.1430    1.2890    0.5369 C   0  0  0  0  0  0  0  0  0  0  0  0
   -4.8216    1.7249   -0.7567 C   0  0  1  0  0  0  0  0  0  0  0  0
   -4.5150    3.0490   -1.0259 F   0  0  0  0  0  0  0  0  0  0  0  0
   -4.2340    0.8300   -1.8453 C   0  0  0  0  0  0  0  0  0  0  0  0
   -2.8759    0.3744   -1.3120 C   0  0  1  0  0  0  0  0  0  0  0  0
   -1.7931    1.2028   -1.8689 C   0  0  0  0  0  0  0  0  0  0  0  0
   -0.9423    1.8527   -2.3082 N   0  0  0  0  0  0  0  0  0  0  0  0
    4.0444    1.1975   -2.0527 H   0  0  0  0  0  0  0  0  0  0  0  0
    4.3930   -0.4186   -2.7428 H   0  0  0  0  0  0  0  0  0  0  0  0
    4.6306   -0.1369   -0.9835 H   0  0  0  0  0  0  0  0  0  0  0  0
    1.9110    0.0312   -2.4698 H   0  0  0  0  0  0  0  0  0  0  0  0
    2.5012   -1.4411   -1.6762 H   0  0  0  0  0  0  0  0  0  0  0  0
    1.9576    2.1152   -1.1791 H   0  0  0  0  0  0  0  0  0  0  0  0
    3.1143    1.8678    0.1759 H   0  0  0  0  0  0  0  0  0  0  0  0
    1.0939    3.3148    0.6911 H   0  0  0  0  0  0  0  0  0  0  0  0
    1.2484    1.9137    1.7957 H   0  0  0  0  0  0  0  0  0  0  0  0
    0.0321    1.8839    0.4493 H   0  0  0  0  0  0  0  0  0  0  0  0
    2.6552    0.0607    1.6784 H   0  0  0  0  0  0  0  0  0  0  0  0
    3.3790   -1.1382    0.6144 H   0  0  0  0  0  0  0  0  0  0  0  0
    0.7907   -2.4841   -0.6463 H   0  0  0  0  0  0  0  0  0  0  0  0
    0.5287   -3.6158    0.7178 H   0  0  0  0  0  0  0  0  0  0  0  0
    2.1924   -3.3183    0.0978 H   0  0  0  0  0  0  0  0  0  0  0  0
    2.9464   -2.7991    2.4223 H   0  0  0  0  0  0  0  0  0  0  0  0
    1.2708   -3.0846    3.0256 H   0  0  0  0  0  0  0  0  0  0  0  0
    2.1082   -1.5429    3.4062 H   0  0  0  0  0  0  0  0  0  0  0  0
    0.2636   -0.1477    2.1794 H   0  0  0  0  0  0  0  0  0  0  0  0
   -1.3154   -1.9140    0.3695 H   0  0  0  0  0  0  0  0  0  0  0  0
   -0.4503   -0.4630   -0.2502 H   0  0  0  0  0  0  0  0  0  0  0  0
   -4.8159    0.6187    1.1150 H   0  0  0  0  0  0  0  0  0  0  0  0
   -3.8630    2.1666    1.1592 H   0  0  0  0  0  0  0  0  0  0  0  0
   -5.9256    1.6109   -0.6933 H   0  0  0  0  0  0  0  0  0  0  0  0
   -4.1702    1.3569   -2.8238 H   0  0  0  0  0  0  0  0  0  0  0  0
   -4.8902   -0.0595   -1.9720 H   0  0  0  0  0  0  0  0  0  0  0  0
   -2.7035   -0.6936   -1.5678 H   0  0  0  0  0  0  0  0  0  0  0  0
  1  2  1  0
  2  3  1  0
  3  4  1  0
  4  5  1  0
  3  6  1  0
  6  7  1  0
  7  8  1  0
  7  9  1  0
  7 10  1  0
 10 11  1  0
 11 12  1  0
 12 13  2  0
 12 14  1  0
 14 15  1  0
 15 16  1  0
 16 17  1  0
 16 18  1  0
 18 19  1  0
 19 20  1  0
 20 21  3  0
 19 14  1  0
  1 22  1  0
  1 23  1  0
  1 24  1  0
  2 25  1  0
  2 26  1  0
  4 27  1  0
  4 28  1  0
  5 29  1  0
  5 30  1  0
  5 31  1  0
  6 32  1  0
  6 33  1  0
  8 34  1  0
  8 35  1  0
  8 36  1  0
  9 37  1  0
  9 38  1  0
  9 39  1  0
 10 40  1  0
 11 41  1  0
 11 42  1  0
 15 43  1  0
 15 44  1  0
 16 45  1  1
 18 46  1  0
 18 47  1  0
 19 48  1  1
M  END
$$$$
