
     RDKit          3D

 43 45  0  0  0  0  0  0  0  0999 V2000
   -1.3040    4.3958   -1.5517 C   0  0  0  0  0  0  0  0  0  0  0  0
   -1.0317    3.4673   -0.4551 C   0  0  0  0  0  0  0  0  0  0  0  0
   -0.8054    2.7004    0.4465 C   0  0  0  0  0  0  0  0  0  0  0  0
   -0.5259    1.7628    1.5375 C   0  0  0  0  0  0  0  0  0  0  0  0
   -0.4082    0.4015    1.0108 N   0  0  0  0  0  0  0  0  0  0  0  0
    0.7278   -0.2843    0.7027 C   0  0  0  0  0  0  0  0  0  0  0  0
    2.0502    0.2787    0.7468 N   0  0  0  0  0  0  0  0  0  0  0  0
    3.1651   -0.5292    1.2503 C   0  0  0  0  0  0  0  0  0  0  0  0
    4.1637   -0.8433    0.1168 C   0  0  0  0  0  0  0  0  0  0  0  0
    4.1128    0.1310   -0.9913 N   0  0  0  0  0  0  0  0  0  0  0  0
    3.7917    1.4831   -0.5219 C   0  0  0  0  0  0  0  0  0  0  0  0
    2.3517    1.5097    0.0025 C   0  0  0  0  0  0  0  0  0  0  0  0
    0.5008   -1.5624    0.3031 N   0  0  0  0  0  0  0  0  0  0  0  0
   -0.8415   -1.6556    0.3559 C   0  0  0  0  0  0  0  0  0  0  0  0
   -1.3915   -0.4889    0.7697 C   0  0  0  0  0  0  0  0  0  0  0  0
   -2.7738   -0.3668    0.8761 C   0  0  0  0  0  0  0  0  0  0  0  0
   -3.2985    0.7294    1.2135 O   0  0  0  0  0  0  0  0  0  0  0  0
   -3.5501   -1.4676    0.5922 N   0  0  0  0  0  0  0  0  0  0  0  0
   -5.0171   -1.3718    0.6804 C   0  0  0  0  0  0  0  0  0  0  0  0
   -2.9617   -2.6432    0.1567 C   0  0  0  0  0  0  0  0  0  0  0  0
   -3.6854   -3.6398   -0.1264 O   0  0  0  0  0  0  0  0  0  0  0  0
   -1.5938   -2.7398    0.0244 N   0  0  0  0  0  0  0  0  0  0  0  0
   -0.9598   -3.9956   -0.3995 C   0  0  0  0  0  0  0  0  0  0  0  0
   -2.2072    4.0622   -2.1029 H   0  0  0  0  0  0  0  0  0  0  0  0
   -0.4360    4.4166   -2.2423 H   0  0  0  0  0  0  0  0  0  0  0  0
   -1.4751    5.4125   -1.1419 H   0  0  0  0  0  0  0  0  0  0  0  0
   -1.3367    1.8175    2.2921 H   0  0  0  0  0  0  0  0  0  0  0  0
    0.4077    2.0602    2.0563 H   0  0  0  0  0  0  0  0  0  0  0  0
    3.6870    0.0491    2.0435 H   0  0  0  0  0  0  0  0  0  0  0  0
    2.8053   -1.4720    1.7183 H   0  0  0  0  0  0  0  0  0  0  0  0
    5.1919   -0.8893    0.5413 H   0  0  0  0  0  0  0  0  0  0  0  0
    3.9294   -1.8473   -0.2969 H   0  0  0  0  0  0  0  0  0  0  0  0
    5.0543    0.1583   -1.4481 H   0  0  0  0  0  0  0  0  0  0  0  0
    3.8889    2.2040   -1.3627 H   0  0  0  0  0  0  0  0  0  0  0  0
    4.5008    1.7939    0.2788 H   0  0  0  0  0  0  0  0  0  0  0  0
    1.6651    1.5970   -0.8687 H   0  0  0  0  0  0  0  0  0  0  0  0
    2.2146    2.3965    0.6547 H   0  0  0  0  0  0  0  0  0  0  0  0
   -5.3300   -0.6307    1.4465 H   0  0  0  0  0  0  0  0  0  0  0  0
   -5.4645   -2.3422    0.9843 H   0  0  0  0  0  0  0  0  0  0  0  0
   -5.4301   -1.0720   -0.3057 H   0  0  0  0  0  0  0  0  0  0  0  0
   -0.8946   -4.6892    0.4650 H   0  0  0  0  0  0  0  0  0  0  0  0
    0.0617   -3.8211   -0.7996 H   0  0  0  0  0  0  0  0  0  0  0  0
   -1.5480   -4.4756   -1.2106 H   0  0  0  0  0  0  0  0  0  0  0  0
  1  2  1  0
  2  3  3  0
  3  4  1  0
  4  5  1  0
  5  6  1  0
  6  7  1  0
  7  8  1  0
  8  9  1  0
  9 10  1  0
 10 11  1  0
 11 12  1  0
  6 13  2  0
 13 14  1  0
 14 15  2  0
 15 16  1  0
 16 17  2  0
 16 18  1  0
 18 19  1  0
 18 20  1  0
 20 21  2  0
 20 22  1  0
 22 23  1  0
 15  5  1  0
 12  7  1  0
 22 14  1  0
  1 24  1  0
  1 25  1  0
  1 26  1  0
  4 27  1  0
  4 28  1  0
  8 29  1  0
  8 30  1  0
  9 31  1  0
  9 32  1  0
 10 33  1  0
 11 34  1  0
 11 35  1  0
 12 36  1  0
 12 37  1  0
 19 38  1  0
 19 39  1  0
 19 40  1  0
 23 41  1  0
 23 42  1  0
 23 43  1  0
M  END
$$$$
