
     RDKit          3D

 71 72  0  0  0  0  0  0  0  0999 V2000
    8.5476    0.4260    0.3817 C   0  0  0  0  0  0  0  0  0  0  0  0
    7.8116    1.3854    1.3321 C   0  0  0  0  0  0  0  0  0  0  0  0
    8.5539    2.7329    1.3637 C   0  0  0  0  0  0  0  0  0  0  0  0
    6.3266    1.5594    0.9063 C   0  0  1  0  0  0  0  0  0  0  0  0
    5.6289    0.2662    0.9015 N   0  0  0  0  0  0  0  0  0  0  0  0
    4.4499   -0.0198    0.1225 C   0  0  0  0  0  0  0  0  0  0  0  0
    3.7702    0.9797   -0.6011 C   0  0  0  0  0  0  0  0  0  0  0  0
    2.6257    0.6650   -1.3397 C   0  0  0  0  0  0  0  0  0  0  0  0
    2.1407   -0.6506   -1.3706 C   0  0  0  0  0  0  0  0  0  0  0  0
    0.8913   -0.9899   -2.1367 C   0  0  0  0  0  0  0  0  0  0  0  0
   -0.2024   -1.2758   -1.2123 N   0  0  0  0  0  0  0  0  0  0  0  0
   -0.8529   -0.2491   -0.4485 C   0  0  0  0  0  0  0  0  0  0  0  0
   -0.5436    0.9614   -0.6177 O   0  0  0  0  0  0  0  0  0  0  0  0
   -1.8883   -0.6079    0.5787 C   0  0  2  0  0  0  0  0  0  0  0  0
   -1.0595   -1.4412    1.9651 S   0  0  0  0  0  0  0  0  0  0  0  0
   -2.3849   -2.6702    2.0765 C   0  0  0  0  0  0  0  0  0  0  0  0
   -3.0572   -2.7810    0.7188 C   0  0  0  0  0  0  0  0  0  0  0  0
   -2.8953   -1.5106    0.0205 N   0  0  0  0  0  0  0  0  0  0  0  0
   -3.6913   -1.1328   -1.1277 C   0  0  0  0  0  0  0  0  0  0  0  0
   -3.5670    0.0270   -1.6065 O   0  0  0  0  0  0  0  0  0  0  0  0
   -4.6137   -2.1078   -1.8247 C   0  0  0  0  0  0  0  0  0  0  0  0
   -6.0935   -1.6540   -1.9488 C   0  0  2  0  0  0  0  0  0  0  0  0
   -6.2894   -0.6618   -3.0111 N   0  0  0  0  0  0  0  0  0  0  0  0
   -6.7735   -1.2276   -0.6207 C   0  0  0  0  0  0  0  0  0  0  0  0
   -6.3699    0.1324   -0.0851 C   0  0  0  0  0  0  0  0  0  0  0  0
   -6.8174    1.3040   -0.7233 C   0  0  0  0  0  0  0  0  0  0  0  0
   -6.4448    2.5626   -0.2422 C   0  0  0  0  0  0  0  0  0  0  0  0
   -6.8684    3.6820   -0.8796 F   0  0  0  0  0  0  0  0  0  0  0  0
   -5.6436    2.6670    0.8974 C   0  0  0  0  0  0  0  0  0  0  0  0
   -5.2814    3.8870    1.3655 F   0  0  0  0  0  0  0  0  0  0  0  0
   -5.2333    1.5134    1.5686 C   0  0  0  0  0  0  0  0  0  0  0  0
   -5.6049    0.2519    1.0933 C   0  0  0  0  0  0  0  0  0  0  0  0
   -5.2368   -0.8452    1.7989 F   0  0  0  0  0  0  0  0  0  0  0  0
    2.8086   -1.6458   -0.6434 C   0  0  0  0  0  0  0  0  0  0  0  0
    3.9522   -1.3323    0.0956 C   0  0  0  0  0  0  0  0  0  0  0  0
    5.6006    2.4999    1.8291 C   0  0  0  0  0  0  0  0  0  0  0  0
    5.3468    2.1567    3.0153 O   0  0  0  0  0  0  0  0  0  0  0  0
    5.2276    3.7620    1.3776 O   0  0  0  0  0  0  0  0  0  0  0  0
    0.6878    0.0000    0.0000 Cl  0  0  0  0  0  0  0  0  0  0  0  0
    8.0860   -0.5830    0.4013 H   0  0  0  0  0  0  0  0  0  0  0  0
    8.5213    0.8111   -0.6604 H   0  0  0  0  0  0  0  0  0  0  0  0
    9.6079    0.3133    0.6939 H   0  0  0  0  0  0  0  0  0  0  0  0
    7.8480    0.9497    2.3557 H   0  0  0  0  0  0  0  0  0  0  0  0
    8.5040    3.2307    0.3714 H   0  0  0  0  0  0  0  0  0  0  0  0
    8.1126    3.4069    2.1275 H   0  0  0  0  0  0  0  0  0  0  0  0
    9.6207    2.5794    1.6334 H   0  0  0  0  0  0  0  0  0  0  0  0
    6.3252    1.9821   -0.1225 H   0  0  0  0  0  0  0  0  0  0  0  0
    5.9687   -0.4760    1.5558 H   0  0  0  0  0  0  0  0  0  0  0  0
    4.1036    2.0071   -0.5916 H   0  0  0  0  0  0  0  0  0  0  0  0
    2.1145    1.4507   -1.8820 H   0  0  0  0  0  0  0  0  0  0  0  0
    0.5971   -0.1681   -2.8255 H   0  0  0  0  0  0  0  0  0  0  0  0
    1.0864   -1.8869   -2.7636 H   0  0  0  0  0  0  0  0  0  0  0  0
   -0.5007   -2.2696   -1.0891 H   0  0  0  0  0  0  0  0  0  0  0  0
   -2.3888    0.3082    0.9613 H   0  0  0  0  0  0  0  0  0  0  0  0
   -1.9721   -3.6511    2.3933 H   0  0  0  0  0  0  0  0  0  0  0  0
   -3.1186   -2.3238    2.8354 H   0  0  0  0  0  0  0  0  0  0  0  0
   -2.5847   -3.5902    0.1213 H   0  0  0  0  0  0  0  0  0  0  0  0
   -4.1322   -3.0136    0.8744 H   0  0  0  0  0  0  0  0  0  0  0  0
   -4.5984   -3.0976   -1.3290 H   0  0  0  0  0  0  0  0  0  0  0  0
   -4.2075   -2.2886   -2.8431 H   0  0  0  0  0  0  0  0  0  0  0  0
   -6.6477   -2.5664   -2.2685 H   0  0  0  0  0  0  0  0  0  0  0  0
   -6.0735   -1.1101   -3.9314 H   0  0  0  0  0  0  0  0  0  0  0  0
   -5.6201    0.1301   -2.8989 H   0  0  0  0  0  0  0  0  0  0  0  0
   -6.5927   -2.0183    0.1388 H   0  0  0  0  0  0  0  0  0  0  0  0
   -7.8738   -1.2147   -0.7823 H   0  0  0  0  0  0  0  0  0  0  0  0
   -7.4592    1.2443   -1.5930 H   0  0  0  0  0  0  0  0  0  0  0  0
   -4.6333    1.5962    2.4658 H   0  0  0  0  0  0  0  0  0  0  0  0
    2.4398   -2.6642   -0.6456 H   0  0  0  0  0  0  0  0  0  0  0  0
    4.4533   -2.1166    0.6490 H   0  0  0  0  0  0  0  0  0  0  0  0
    4.7449    4.4103    1.9881 H   0  0  0  0  0  0  0  0  0  0  0  0
   -0.6878    0.0000    0.0000 H   0  0  0  0  0  0  0  0  0  0  0  0
  1  2  1  0
  2  3  1  0
  2  4  1  0
  4  5  1  0
  5  6  1  0
  6  7  2  0
  7  8  1  0
  8  9  2  0
  9 10  1  0
 10 11  1  0
 11 12  1  0
 12 13  2  0
 12 14  1  0
 14 15  1  0
 15 16  1  0
 16 17  1  0
 17 18  1  0
 18 19  1  0
 19 20  2  0
 19 21  1  0
 21 22  1  0
 22 23  1  0
 22 24  1  0
 24 25  1  0
 25 26  2  0
 26 27  1  0
 27 28  1  0
 27 29  2  0
 29 30  1  0
 29 31  1  0
 31 32  2  0
 32 33  1  0
  9 34  1  0
 34 35  2  0
  4 36  1  0
 36 37  2  0
 36 38  1  0
 35  6  1  0
 18 14  1  0
 32 25  1  0
  1 40  1  0
  1 41  1  0
  1 42  1  0
  2 43  1  0
  3 44  1  0
  3 45  1  0
  3 46  1  0
  4 47  1  6
  5 48  1  0
  7 49  1  0
  8 50  1  0
 10 51  1  0
 10 52  1  0
 11 53  1  0
 14 54  1  1
 16 55  1  0
 16 56  1  0
 17 57  1  0
 17 58  1  0
 21 59  1  0
 21 60  1  0
 22 61  1  6
 23 62  1  0
 23 63  1  0
 24 64  1  0
 24 65  1  0
 26 66  1  0
 31 67  1  0
 34 68  1  0
 35 69  1  0
 38 70  1  0
 39 71  1  0
M  END
$$$$
