
     RDKit          3D

 63 64  0  0  0  0  0  0  0  0999 V2000
   -7.0984   -0.7100   -0.3251 C   0  0  0  0  0  0  0  0  0  0  0  0
   -5.8530   -0.0926    0.1541 N   0  0  0  0  0  0  0  0  0  0  0  0
   -6.1440    1.1335    0.9174 C   0  0  0  0  0  0  0  0  0  0  0  0
   -4.8383    1.9025    1.1415 C   0  0  0  0  0  0  0  0  0  0  0  0
   -3.7313    0.9781    1.4090 N   0  0  0  0  0  0  0  0  0  0  0  0
   -2.3865    1.4820    1.4431 C   0  0  0  0  0  0  0  0  0  0  0  0
   -2.1580    2.5895    2.0019 O   0  0  0  0  0  0  0  0  0  0  0  0
   -1.3034    0.7493    0.8326 N   0  0  0  0  0  0  0  0  0  0  0  0
   -1.5698   -0.1628   -0.2939 C   0  0  0  0  0  0  0  0  0  0  0  0
   -0.5358   -0.0401   -1.4278 C   0  0  0  0  0  0  0  0  0  0  0  0
   -0.1003    1.4082   -1.6923 C   0  0  0  0  0  0  0  0  0  0  0  0
    1.0122    1.7782   -0.8054 N   0  0  0  0  0  0  0  0  0  0  0  0
    2.3570    1.8873   -1.3149 C   0  0  0  0  0  0  0  0  0  0  0  0
    3.1086    2.8098   -0.8967 O   0  0  0  0  0  0  0  0  0  0  0  0
    2.9121    0.8964   -2.3066 C   0  0  0  0  0  0  0  0  0  0  0  0
    4.0200    0.0210   -1.6789 C   0  0  2  0  0  0  0  0  0  0  0  0
    4.6951   -0.7676   -2.7139 N   0  0  0  0  0  0  0  0  0  0  0  0
    3.4500   -0.9170   -0.5947 C   0  0  0  0  0  0  0  0  0  0  0  0
    4.5459   -1.6865    0.1000 C   0  0  0  0  0  0  0  0  0  0  0  0
    5.2662   -1.0830    1.1451 C   0  0  0  0  0  0  0  0  0  0  0  0
    6.3016   -1.7744    1.7815 C   0  0  0  0  0  0  0  0  0  0  0  0
    6.9876   -1.1839    2.7912 F   0  0  0  0  0  0  0  0  0  0  0  0
    6.6308   -3.0709    1.3751 C   0  0  0  0  0  0  0  0  0  0  0  0
    7.6355   -3.7421    1.9906 F   0  0  0  0  0  0  0  0  0  0  0  0
    5.9266   -3.6754    0.3301 C   0  0  0  0  0  0  0  0  0  0  0  0
    4.8898   -2.9886   -0.3103 C   0  0  0  0  0  0  0  0  0  0  0  0
    4.2262   -3.5927   -1.3286 F   0  0  0  0  0  0  0  0  0  0  0  0
    0.7380    2.1131    0.5993 C   0  0  0  0  0  0  0  0  0  0  0  0
    0.0660    0.9419    1.3249 C   0  0  0  0  0  0  0  0  0  0  0  0
   -4.0260   -0.3827    1.8700 C   0  0  0  0  0  0  0  0  0  0  0  0
   -5.0719   -1.0612    0.9597 C   0  0  0  0  0  0  0  0  0  0  0  0
    0.6878    0.0000    0.0000 Cl  0  0  0  0  0  0  0  0  0  0  0  0
   -7.6165   -0.0236   -1.0286 H   0  0  0  0  0  0  0  0  0  0  0  0
   -7.7821   -0.9464    0.5207 H   0  0  0  0  0  0  0  0  0  0  0  0
   -6.8726   -1.6451   -0.8820 H   0  0  0  0  0  0  0  0  0  0  0  0
   -6.6118    0.8836    1.8974 H   0  0  0  0  0  0  0  0  0  0  0  0
   -6.8465    1.7902    0.3569 H   0  0  0  0  0  0  0  0  0  0  0  0
   -4.6073    2.4845    0.2223 H   0  0  0  0  0  0  0  0  0  0  0  0
   -4.9561    2.6109    1.9896 H   0  0  0  0  0  0  0  0  0  0  0  0
   -1.5780   -1.2105    0.0744 H   0  0  0  0  0  0  0  0  0  0  0  0
   -2.5716    0.0501   -0.7277 H   0  0  0  0  0  0  0  0  0  0  0  0
    0.3521   -0.6652   -1.1919 H   0  0  0  0  0  0  0  0  0  0  0  0
   -0.9836   -0.4580   -2.3556 H   0  0  0  0  0  0  0  0  0  0  0  0
   -0.9532    2.1070   -1.5452 H   0  0  0  0  0  0  0  0  0  0  0  0
    0.2011    1.5172   -2.7565 H   0  0  0  0  0  0  0  0  0  0  0  0
    3.3330    1.4684   -3.1615 H   0  0  0  0  0  0  0  0  0  0  0  0
    2.1163    0.2393   -2.7127 H   0  0  0  0  0  0  0  0  0  0  0  0
    4.7747    0.6903   -1.2064 H   0  0  0  0  0  0  0  0  0  0  0  0
    5.1678   -0.1149   -3.3808 H   0  0  0  0  0  0  0  0  0  0  0  0
    3.9838   -1.3107   -3.2563 H   0  0  0  0  0  0  0  0  0  0  0  0
    2.9007   -0.3229    0.1664 H   0  0  0  0  0  0  0  0  0  0  0  0
    2.7115   -1.6145   -1.0466 H   0  0  0  0  0  0  0  0  0  0  0  0
    5.0248   -0.0764    1.4643 H   0  0  0  0  0  0  0  0  0  0  0  0
    6.1864   -4.6775    0.0137 H   0  0  0  0  0  0  0  0  0  0  0  0
    0.0965    3.0186    0.6455 H   0  0  0  0  0  0  0  0  0  0  0  0
    1.6820    2.3486    1.1376 H   0  0  0  0  0  0  0  0  0  0  0  0
    0.6615    0.0147    1.1813 H   0  0  0  0  0  0  0  0  0  0  0  0
    0.0497    1.1432    2.4185 H   0  0  0  0  0  0  0  0  0  0  0  0
   -4.4288   -0.3206    2.9045 H   0  0  0  0  0  0  0  0  0  0  0  0
   -3.1067   -1.0037    1.9202 H   0  0  0  0  0  0  0  0  0  0  0  0
   -4.5413   -1.7456    0.2624 H   0  0  0  0  0  0  0  0  0  0  0  0
   -5.7383   -1.6855    1.5984 H   0  0  0  0  0  0  0  0  0  0  0  0
   -0.6878    0.0000    0.0000 H   0  0  0  0  0  0  0  0  0  0  0  0
  1  2  1  0
  2  3  1  0
  3  4  1  0
  4  5  1  0
  5  6  1  0
  6  7  2  0
  6  8  1  0
  8  9  1  0
  9 10  1  0
 10 11  1  0
 11 12  1  0
 12 13  1  0
 13 14  2  0
 13 15  1  0
 15 16  1  0
 16 17  1  0
 16 18  1  0
 18 19  1  0
 19 20  2  0
 20 21  1  0
 21 22  1  0
 21 23  2  0
 23 24  1  0
 23 25  1  0
 25 26  2  0
 26 27  1  0
 12 28  1  0
 28 29  1  0
  5 30  1  0
 30 31  1  0
 31  2  1  0
 29  8  1  0
 26 19  1  0
  1 33  1  0
  1 34  1  0
  1 35  1  0
  3 36  1  0
  3 37  1  0
  4 38  1  0
  4 39  1  0
  9 40  1  0
  9 41  1  0
 10 42  1  0
 10 43  1  0
 11 44  1  0
 11 45  1  0
 15 46  1  0
 15 47  1  0
 16 48  1  1
 17 49  1  0
 17 50  1  0
 18 51  1  0
 18 52  1  0
 20 53  1  0
 25 54  1  0
 28 55  1  0
 28 56  1  0
 29 57  1  0
 29 58  1  0
 30 59  1  0
 30 60  1  0
 31 61  1  0
 31 62  1  0
 32 63  1  0
M  END
$$$$
