
     RDKit          3D

 42 43  0  0  0  0  0  0  0  0999 V2000
   -2.9816   -0.7874   -1.6040 O   0  0  0  0  0  0  0  0  0  0  0  0
   -3.0757   -0.4007   -0.4066 C   0  0  0  0  0  0  0  0  0  0  0  0
   -1.9184    0.3206    0.2326 C   0  0  0  0  0  0  0  0  0  0  0  0
   -0.6633    0.0152   -0.4658 N   0  0  0  0  0  0  0  0  0  0  0  0
    0.4496    0.7716    0.1260 C   0  0  0  0  0  0  0  0  0  0  0  0
    1.7173    0.6906   -0.7467 C   0  0  0  0  0  0  0  0  0  0  0  0
    1.4888    1.2448   -2.0189 O   0  0  0  0  0  0  0  0  0  0  0  0
    2.2735   -0.7430   -0.8586 C   0  0  0  0  0  0  0  0  0  0  0  0
    3.5291   -0.7464   -1.5392 O   0  0  0  0  0  0  0  0  0  0  0  0
    4.7588   -0.3490   -0.9885 C   0  0  0  0  0  0  0  0  0  0  0  0
    5.8790   -0.3176   -1.8297 C   0  0  0  0  0  0  0  0  0  0  0  0
    7.1285    0.0685   -1.3353 C   0  0  0  0  0  0  0  0  0  0  0  0
    7.2696    0.4250    0.0078 C   0  0  0  0  0  0  0  0  0  0  0  0
    6.1615    0.3944    0.8579 C   0  0  0  0  0  0  0  0  0  0  0  0
    4.9099    0.0085    0.3673 C   0  0  0  0  0  0  0  0  0  0  0  0
   -4.3094   -0.5984    0.3061 N   0  0  0  0  0  0  0  0  0  0  0  0
   -5.4469   -1.2979   -0.2647 C   0  0  0  0  0  0  0  0  0  0  0  0
   -6.4772   -1.3867    0.8533 C   0  0  0  0  0  0  0  0  0  0  0  0
   -6.0504   -0.3578    1.8972 C   0  0  0  0  0  0  0  0  0  0  0  0
   -4.5718   -0.0955    1.6440 C   0  0  0  0  0  0  0  0  0  0  0  0
   -1.8357    0.0208    1.3009 H   0  0  0  0  0  0  0  0  0  0  0  0
   -2.1298    1.4109    0.1804 H   0  0  0  0  0  0  0  0  0  0  0  0
   -0.4695   -1.0042   -0.3240 H   0  0  0  0  0  0  0  0  0  0  0  0
    0.6754    0.3879    1.1471 H   0  0  0  0  0  0  0  0  0  0  0  0
    0.1762    1.8468    0.2198 H   0  0  0  0  0  0  0  0  0  0  0  0
    2.4855    1.3184   -0.2482 H   0  0  0  0  0  0  0  0  0  0  0  0
    0.8436    0.6593   -2.4945 H   0  0  0  0  0  0  0  0  0  0  0  0
    2.3725   -1.2173    0.1411 H   0  0  0  0  0  0  0  0  0  0  0  0
    1.5695   -1.3695   -1.4452 H   0  0  0  0  0  0  0  0  0  0  0  0
    5.7791   -0.5922   -2.8723 H   0  0  0  0  0  0  0  0  0  0  0  0
    7.9873    0.0910   -1.9938 H   0  0  0  0  0  0  0  0  0  0  0  0
    8.2372    0.7238    0.3899 H   0  0  0  0  0  0  0  0  0  0  0  0
    6.2726    0.6692    1.8990 H   0  0  0  0  0  0  0  0  0  0  0  0
    4.0735   -0.0080    1.0511 H   0  0  0  0  0  0  0  0  0  0  0  0
   -5.1481   -2.3139   -0.6031 H   0  0  0  0  0  0  0  0  0  0  0  0
   -5.8505   -0.7163   -1.1218 H   0  0  0  0  0  0  0  0  0  0  0  0
   -7.5025   -1.1800    0.4769 H   0  0  0  0  0  0  0  0  0  0  0  0
   -6.4517   -2.4034    1.3039 H   0  0  0  0  0  0  0  0  0  0  0  0
   -6.6268    0.5818    1.7476 H   0  0  0  0  0  0  0  0  0  0  0  0
   -6.2250   -0.7322    2.9293 H   0  0  0  0  0  0  0  0  0  0  0  0
   -3.9492   -0.6488    2.3800 H   0  0  0  0  0  0  0  0  0  0  0  0
   -4.3544    0.9932    1.7017 H   0  0  0  0  0  0  0  0  0  0  0  0
  1  2  2  0
  2  3  1  0
  3  4  1  0
  4  5  1  0
  5  6  1  0
  6  7  1  0
  6  8  1  0
  8  9  1  0
  9 10  1  0
 10 11  2  0
 11 12  1  0
 12 13  2  0
 13 14  1  0
 14 15  2  0
  2 16  1  0
 16 17  1  0
 17 18  1  0
 18 19  1  0
 19 20  1  0
 15 10  1  0
 20 16  1  0
  3 21  1  0
  3 22  1  0
  4 23  1  0
  5 24  1  0
  5 25  1  0
  6 26  1  0
  7 27  1  0
  8 28  1  0
  8 29  1  0
 11 30  1  0
 12 31  1  0
 13 32  1  0
 14 33  1  0
 15 34  1  0
 17 35  1  0
 17 36  1  0
 18 37  1  0
 18 38  1  0
 19 39  1  0
 19 40  1  0
 20 41  1  0
 20 42  1  0
M  END
$$$$
