
     RDKit          3D

 87 89  0  0  0  0  0  0  0  0999 V2000
   -8.7237   -4.9140   -0.8819 C   0  0  0  0  0  0  0  0  0  0  0  0
   -7.5528   -5.3978   -0.0398 C   0  0  0  0  0  0  0  0  0  0  0  0
   -7.4416   -4.5917    1.1275 O   0  0  0  0  0  0  0  0  0  0  0  0
   -6.4579   -4.8001    2.0970 C   0  0  0  0  0  0  0  0  0  0  0  0
   -5.6269   -5.7426    1.9802 O   0  0  0  0  0  0  0  0  0  0  0  0
   -6.3708   -3.8757    3.2682 C   0  0  0  0  0  0  0  0  0  0  0  0
   -5.2493   -2.9542    3.1038 N   0  0  0  0  0  0  0  0  0  0  0  0
   -5.2676   -1.8808    2.1475 C   0  0  0  0  0  0  0  0  0  0  0  0
   -6.2228   -1.7928    1.3281 O   0  0  0  0  0  0  0  0  0  0  0  0
   -4.1711   -0.8842    2.0925 C   0  0  0  0  0  0  0  0  0  0  0  0
   -3.3981   -0.5905    3.2294 C   0  0  0  0  0  0  0  0  0  0  0  0
   -2.3695    0.3533    3.1616 C   0  0  0  0  0  0  0  0  0  0  0  0
   -2.0966    1.0292    1.9680 C   0  0  0  0  0  0  0  0  0  0  0  0
   -1.0486    1.9606    1.9656 O   0  0  0  0  0  0  0  0  0  0  0  0
   -0.5508    2.8808    0.5961 P   0  0  0  0  0  0  0  0  0  0  0  0
   -1.6894    3.7987    0.2125 O   0  0  0  0  0  0  0  0  0  0  0  0
   -0.2140    1.8475   -0.7429 O   0  0  0  0  0  0  0  0  0  0  0  0
    0.7326    0.8148   -0.7487 C   0  0  0  0  0  0  0  0  0  0  0  0
    1.2456    0.2412    0.4274 C   0  0  0  0  0  0  0  0  0  0  0  0
    2.1926   -0.7839    0.3583 C   0  0  0  0  0  0  0  0  0  0  0  0
    2.6506   -1.2518   -0.8847 C   0  0  0  0  0  0  0  0  0  0  0  0
    3.6482   -2.3456   -0.9421 C   0  0  0  0  0  0  0  0  0  0  0  0
    3.7184   -3.1660    0.0136 O   0  0  0  0  0  0  0  0  0  0  0  0
    4.5436   -2.4768   -2.0594 N   0  0  0  0  0  0  0  0  0  0  0  0
    5.4557   -3.6098   -2.2016 C   0  0  0  0  0  0  0  0  0  0  0  0
    6.6014   -3.4745   -1.2496 C   0  0  0  0  0  0  0  0  0  0  0  0
    7.5954   -2.7634   -1.5625 O   0  0  0  0  0  0  0  0  0  0  0  0
    6.5341   -4.0953    0.0004 O   0  0  0  0  0  0  0  0  0  0  0  0
    7.5845   -4.0147    0.9577 C   0  0  0  0  0  0  0  0  0  0  0  0
    7.1724   -4.7418    2.2275 C   0  0  0  0  0  0  0  0  0  0  0  0
    2.1223   -0.6876   -2.0589 C   0  0  0  0  0  0  0  0  0  0  0  0
    1.1697    0.3326   -1.9868 C   0  0  0  0  0  0  0  0  0  0  0  0
    0.9229    3.9179    0.9745 C   0  0  0  0  0  0  0  0  0  0  0  0
    1.6794    3.4396    2.2209 C   0  0  0  0  0  0  0  0  0  0  0  0
    3.0491    2.9483    1.7543 C   0  0  0  0  0  0  0  0  0  0  0  0
    3.1607    3.2826    0.2722 C   0  0  0  0  0  0  0  0  0  0  0  0
    1.8875    3.8629   -0.1208 N   0  0  0  0  0  0  0  0  0  0  0  0
    1.6798    4.3580   -1.4618 C   0  0  0  0  0  0  0  0  0  0  0  0
    2.4892    4.0216   -2.3714 O   0  0  0  0  0  0  0  0  0  0  0  0
    0.5413    5.2962   -1.8143 C   0  0  0  0  0  0  0  0  0  0  0  0
   -0.3574    4.7349   -2.9072 C   0  0  0  0  0  0  0  0  0  0  0  0
   -0.9559    5.9696   -3.5517 C   0  0  0  0  0  0  0  0  0  0  0  0
   -0.0555    7.1292   -3.1215 C   0  0  0  0  0  0  0  0  0  0  0  0
    1.0304    6.5895   -2.2986 N   0  0  0  0  0  0  0  0  0  0  0  0
   -2.8754    0.7472    0.8293 C   0  0  0  0  0  0  0  0  0  0  0  0
   -3.9016   -0.2001    0.8940 C   0  0  0  0  0  0  0  0  0  0  0  0
    0.6878    0.0000    0.0000 Cl  0  0  0  0  0  0  0  0  0  0  0  0
   -9.6595   -4.9430   -0.2845 H   0  0  0  0  0  0  0  0  0  0  0  0
   -8.8434   -5.5712   -1.7689 H   0  0  0  0  0  0  0  0  0  0  0  0
   -8.5381   -3.8743   -1.2267 H   0  0  0  0  0  0  0  0  0  0  0  0
   -7.7218   -6.4580    0.2516 H   0  0  0  0  0  0  0  0  0  0  0  0
   -6.6167   -5.3253   -0.6382 H   0  0  0  0  0  0  0  0  0  0  0  0
   -6.2216   -4.4793    4.1892 H   0  0  0  0  0  0  0  0  0  0  0  0
   -7.3162   -3.3047    3.3884 H   0  0  0  0  0  0  0  0  0  0  0  0
   -4.3933   -3.1263    3.6758 H   0  0  0  0  0  0  0  0  0  0  0  0
   -3.5953   -1.0707    4.1786 H   0  0  0  0  0  0  0  0  0  0  0  0
   -1.7816    0.5641    4.0461 H   0  0  0  0  0  0  0  0  0  0  0  0
    0.9214    0.5699    1.4009 H   0  0  0  0  0  0  0  0  0  0  0  0
    2.5756   -1.2044    1.2799 H   0  0  0  0  0  0  0  0  0  0  0  0
    4.5848   -1.7262   -2.7836 H   0  0  0  0  0  0  0  0  0  0  0  0
    5.8482   -3.6410   -3.2416 H   0  0  0  0  0  0  0  0  0  0  0  0
    4.9118   -4.5613   -2.0181 H   0  0  0  0  0  0  0  0  0  0  0  0
    7.7958   -2.9501    1.1977 H   0  0  0  0  0  0  0  0  0  0  0  0
    8.5028   -4.4858    0.5445 H   0  0  0  0  0  0  0  0  0  0  0  0
    6.2750   -4.2547    2.6678 H   0  0  0  0  0  0  0  0  0  0  0  0
    8.0009   -4.7047    2.9668 H   0  0  0  0  0  0  0  0  0  0  0  0
    6.9388   -5.8037    1.9986 H   0  0  0  0  0  0  0  0  0  0  0  0
    2.4211   -1.0482   -3.0344 H   0  0  0  0  0  0  0  0  0  0  0  0
    0.7715    0.7567   -2.9007 H   0  0  0  0  0  0  0  0  0  0  0  0
    0.5981    4.9674    1.1450 H   0  0  0  0  0  0  0  0  0  0  0  0
    1.8155    4.2946    2.9197 H   0  0  0  0  0  0  0  0  0  0  0  0
    1.1582    2.6367    2.7815 H   0  0  0  0  0  0  0  0  0  0  0  0
    3.8573    3.4512    2.3291 H   0  0  0  0  0  0  0  0  0  0  0  0
    3.1402    1.8500    1.9107 H   0  0  0  0  0  0  0  0  0  0  0  0
    3.9764    4.0194    0.1018 H   0  0  0  0  0  0  0  0  0  0  0  0
    3.3608    2.3627   -0.3210 H   0  0  0  0  0  0  0  0  0  0  0  0
   -0.0861    5.4973   -0.9234 H   0  0  0  0  0  0  0  0  0  0  0  0
   -1.1438    4.0683   -2.4927 H   0  0  0  0  0  0  0  0  0  0  0  0
    0.2359    4.1771   -3.6653 H   0  0  0  0  0  0  0  0  0  0  0  0
   -1.9918    6.1307   -3.1799 H   0  0  0  0  0  0  0  0  0  0  0  0
   -0.9773    5.8683   -4.6596 H   0  0  0  0  0  0  0  0  0  0  0  0
    0.3503    7.6640   -4.0107 H   0  0  0  0  0  0  0  0  0  0  0  0
   -0.6356    7.8581   -2.5156 H   0  0  0  0  0  0  0  0  0  0  0  0
    1.8495    6.4354   -2.9350 H   0  0  0  0  0  0  0  0  0  0  0  0
   -2.6986    1.2465   -0.1123 H   0  0  0  0  0  0  0  0  0  0  0  0
   -4.4792   -0.4059    0.0007 H   0  0  0  0  0  0  0  0  0  0  0  0
   -0.6878    0.0000    0.0000 H   0  0  0  0  0  0  0  0  0  0  0  0
  1  2  1  0
  2  3  1  0
  3  4  1  0
  4  5  2  0
  4  6  1  0
  6  7  1  0
  7  8  1  0
  8  9  2  0
  8 10  1  0
 10 11  2  0
 11 12  1  0
 12 13  2  0
 13 14  1  0
 14 15  1  0
 15 16  2  0
 15 17  1  0
 17 18  1  0
 18 19  2  0
 19 20  1  0
 20 21  2  0
 21 22  1  0
 22 23  2  0
 22 24  1  0
 24 25  1  0
 25 26  1  0
 26 27  2  0
 26 28  1  0
 28 29  1  0
 29 30  1  0
 21 31  1  0
 31 32  2  0
 15 33  1  0
 33 34  1  0
 34 35  1  0
 35 36  1  0
 36 37  1  0
 37 38  1  0
 38 39  2  0
 38 40  1  0
 40 41  1  0
 41 42  1  0
 42 43  1  0
 43 44  1  0
 13 45  1  0
 45 46  2  0
 46 10  1  0
 32 18  1  0
 37 33  1  0
 44 40  1  0
  1 48  1  0
  1 49  1  0
  1 50  1  0
  2 51  1  0
  2 52  1  0
  6 53  1  0
  6 54  1  0
  7 55  1  0
 11 56  1  0
 12 57  1  0
 19 58  1  0
 20 59  1  0
 24 60  1  0
 25 61  1  0
 25 62  1  0
 29 63  1  0
 29 64  1  0
 30 65  1  0
 30 66  1  0
 30 67  1  0
 31 68  1  0
 32 69  1  0
 33 70  1  0
 34 71  1  0
 34 72  1  0
 35 73  1  0
 35 74  1  0
 36 75  1  0
 36 76  1  0
 40 77  1  0
 41 78  1  0
 41 79  1  0
 42 80  1  0
 42 81  1  0
 43 82  1  0
 43 83  1  0
 44 84  1  0
 45 85  1  0
 46 86  1  0
 47 87  1  0
M  END
$$$$
