
     RDKit          3D

 41 43  0  0  0  0  0  0  0  0999 V2000
    4.6660   -2.2454   -0.7096 C   0  0  0  0  0  0  0  0  0  0  0  0
    3.5268   -1.4901   -0.3107 O   0  0  0  0  0  0  0  0  0  0  0  0
    3.5694   -0.3275    0.4777 C   0  0  0  0  0  0  0  0  0  0  0  0
    4.7961    0.1969    0.9357 C   0  0  0  0  0  0  0  0  0  0  0  0
    4.8297    1.3627    1.7007 C   0  0  0  0  0  0  0  0  0  0  0  0
    3.6462    2.0225    2.0205 C   0  0  0  0  0  0  0  0  0  0  0  0
    2.4224    1.5181    1.5801 C   0  0  0  0  0  0  0  0  0  0  0  0
    2.3616    0.3389    0.8099 C   0  0  0  0  0  0  0  0  0  0  0  0
    1.0332   -0.1703    0.3696 C   0  0  0  0  0  0  0  0  0  0  0  0
    0.8901   -1.4387   -0.0911 N   0  0  0  0  0  0  0  0  0  0  0  0
   -0.3115   -1.9363   -0.4827 C   0  0  0  0  0  0  0  0  0  0  0  0
   -0.3579   -3.2808   -0.9755 N   0  0  0  0  0  0  0  0  0  0  0  0
   -1.4665   -1.1224   -0.3939 C   0  0  0  0  0  0  0  0  0  0  0  0
   -2.8399   -1.6498   -0.7607 C   0  0  0  0  0  0  0  0  0  0  0  0
   -3.0804   -1.4854   -2.1908 N   0  0  0  0  0  0  0  0  0  0  0  0
   -1.2911    0.2079    0.0578 C   0  0  0  0  0  0  0  0  0  0  0  0
   -2.4087    1.1701    0.1463 C   0  0  0  0  0  0  0  0  0  0  0  0
   -3.0290    1.6224   -1.0297 C   0  0  0  0  0  0  0  0  0  0  0  0
   -4.0756    2.5456   -0.9663 C   0  0  0  0  0  0  0  0  0  0  0  0
   -4.5065    3.0324    0.2708 C   0  0  0  0  0  0  0  0  0  0  0  0
   -5.8206    4.1917    0.3479 Cl  0  0  0  0  0  0  0  0  0  0  0  0
   -3.8873    2.5972    1.4466 C   0  0  0  0  0  0  0  0  0  0  0  0
   -2.8377    1.6720    1.3920 C   0  0  0  0  0  0  0  0  0  0  0  0
   -2.1026    1.1397    2.9008 Cl  0  0  0  0  0  0  0  0  0  0  0  0
   -0.0579    0.6343    0.4331 N   0  0  0  0  0  0  0  0  0  0  0  0
    5.2017   -2.6297    0.1840 H   0  0  0  0  0  0  0  0  0  0  0  0
    5.3449   -1.6173   -1.3242 H   0  0  0  0  0  0  0  0  0  0  0  0
    4.3316   -3.1086   -1.3207 H   0  0  0  0  0  0  0  0  0  0  0  0
    5.7337   -0.2878    0.7015 H   0  0  0  0  0  0  0  0  0  0  0  0
    5.7773    1.7564    2.0451 H   0  0  0  0  0  0  0  0  0  0  0  0
    3.6759    2.9270    2.6144 H   0  0  0  0  0  0  0  0  0  0  0  0
    1.5197    2.0496    1.8546 H   0  0  0  0  0  0  0  0  0  0  0  0
    0.5136   -3.8560   -0.9814 H   0  0  0  0  0  0  0  0  0  0  0  0
   -1.2142   -3.7090   -1.3866 H   0  0  0  0  0  0  0  0  0  0  0  0
   -2.9535   -2.7149   -0.4668 H   0  0  0  0  0  0  0  0  0  0  0  0
   -3.6283   -1.1104   -0.1937 H   0  0  0  0  0  0  0  0  0  0  0  0
   -4.0575   -1.8011   -2.3884 H   0  0  0  0  0  0  0  0  0  0  0  0
   -2.4472   -2.1326   -2.7131 H   0  0  0  0  0  0  0  0  0  0  0  0
   -2.6954    1.2668   -1.9966 H   0  0  0  0  0  0  0  0  0  0  0  0
   -4.5477    2.8849   -1.8795 H   0  0  0  0  0  0  0  0  0  0  0  0
   -4.2230    2.9770    2.4035 H   0  0  0  0  0  0  0  0  0  0  0  0
  1  2  1  0
  2  3  1  0
  3  4  2  0
  4  5  1  0
  5  6  2  0
  6  7  1  0
  7  8  2  0
  8  9  1  0
  9 10  2  0
 10 11  1  0
 11 12  1  0
 11 13  2  0
 13 14  1  0
 14 15  1  0
 13 16  1  0
 16 17  1  0
 17 18  2  0
 18 19  1  0
 19 20  2  0
 20 21  1  0
 20 22  1  0
 22 23  2  0
 23 24  1  0
 16 25  2  0
  8  3  1  0
 25  9  1  0
 23 17  1  0
  1 26  1  0
  1 27  1  0
  1 28  1  0
  4 29  1  0
  5 30  1  0
  6 31  1  0
  7 32  1  0
 12 33  1  0
 12 34  1  0
 14 35  1  0
 14 36  1  0
 15 37  1  0
 15 38  1  0
 18 39  1  0
 19 40  1  0
 22 41  1  0
M  END
$$$$
