
     RDKit          3D

 49 51  0  0  0  0  0  0  0  0999 V2000
   -2.2915   -0.7434   -3.7908 N   0  0  0  0  0  0  0  0  0  0  0  0
   -3.2232   -0.9088   -3.1245 C   0  0  0  0  0  0  0  0  0  0  0  0
   -4.4085   -1.1200   -2.2755 C   0  0  2  0  0  0  0  0  0  0  0  0
   -5.2529    0.1536   -2.1837 C   0  0  0  0  0  0  0  0  0  0  0  0
   -5.6680    0.2654   -0.7175 C   0  0  0  0  0  0  0  0  0  0  0  0
   -6.9319   -0.2762   -0.5465 F   0  0  0  0  0  0  0  0  0  0  0  0
   -5.6746    1.5864   -0.3014 F   0  0  0  0  0  0  0  0  0  0  0  0
   -4.6439   -0.5484    0.0663 C   0  0  0  0  0  0  0  0  0  0  0  0
   -4.0171   -1.4299   -0.9066 N   0  0  0  0  0  0  0  0  0  0  0  0
   -3.1969   -2.5602   -0.5488 C   0  0  0  0  0  0  0  0  0  0  0  0
   -2.8873   -3.4124   -1.4251 O   0  0  0  0  0  0  0  0  0  0  0  0
   -2.6679   -2.7292    0.8481 C   0  0  0  0  0  0  0  0  0  0  0  0
   -1.7126   -1.6699    1.1700 N   0  0  0  0  0  0  0  0  0  0  0  0
   -1.1153   -1.5723    2.4707 C   0  0  0  0  0  0  0  0  0  0  0  0
   -1.3837   -2.4335    3.3525 O   0  0  0  0  0  0  0  0  0  0  0  0
   -0.1876   -0.4707    2.7858 C   0  0  0  0  0  0  0  0  0  0  0  0
    0.4613   -0.3445    4.0141 C   0  0  0  0  0  0  0  0  0  0  0  0
    1.4302    1.0284    3.9488 S   0  0  0  0  0  0  0  0  0  0  0  0
    0.9740    1.4105    2.3770 C   0  0  0  0  0  0  0  0  0  0  0  0
    1.5179    2.5553    1.5801 C   0  0  0  0  0  0  0  0  0  0  0  0
    2.8848    2.2224    0.9686 C   0  0  0  0  0  0  0  0  0  0  0  0
    2.7881    1.1486   -0.1243 C   0  0  0  0  0  0  0  0  0  0  0  0
    4.1407    0.8917   -0.7321 C   0  0  0  0  0  0  0  0  0  0  0  0
    4.5705    1.6329   -1.8434 C   0  0  0  0  0  0  0  0  0  0  0  0
    5.8394    1.4158   -2.3866 C   0  0  0  0  0  0  0  0  0  0  0  0
    6.6963    0.4650   -1.8213 C   0  0  0  0  0  0  0  0  0  0  0  0
    8.2860    0.2213   -2.5323 Cl  0  0  0  0  0  0  0  0  0  0  0  0
    6.2786   -0.2712   -0.6995 C   0  0  0  0  0  0  0  0  0  0  0  0
    7.3282   -1.4676    0.0481 Cl  0  0  0  0  0  0  0  0  0  0  0  0
    5.0066   -0.0521   -0.1571 C   0  0  0  0  0  0  0  0  0  0  0  0
    0.1052    0.5036    1.8814 N   0  0  0  0  0  0  0  0  0  0  0  0
   -5.0162   -1.9557   -2.6855 H   0  0  0  0  0  0  0  0  0  0  0  0
   -6.1389    0.0959   -2.8531 H   0  0  0  0  0  0  0  0  0  0  0  0
   -4.6592    1.0546   -2.4612 H   0  0  0  0  0  0  0  0  0  0  0  0
   -5.1475   -1.1363    0.8636 H   0  0  0  0  0  0  0  0  0  0  0  0
   -3.8731    0.1134    0.5172 H   0  0  0  0  0  0  0  0  0  0  0  0
   -2.1647   -3.7160    0.9438 H   0  0  0  0  0  0  0  0  0  0  0  0
   -3.5117   -2.7062    1.5691 H   0  0  0  0  0  0  0  0  0  0  0  0
   -1.4539   -0.9692    0.4381 H   0  0  0  0  0  0  0  0  0  0  0  0
    0.3693   -1.0133    4.8597 H   0  0  0  0  0  0  0  0  0  0  0  0
    0.7985    2.8322    0.7792 H   0  0  0  0  0  0  0  0  0  0  0  0
    1.6273    3.4346    2.2503 H   0  0  0  0  0  0  0  0  0  0  0  0
    3.3027    3.1526    0.5247 H   0  0  0  0  0  0  0  0  0  0  0  0
    3.5808    1.8866    1.7691 H   0  0  0  0  0  0  0  0  0  0  0  0
    2.0764    1.4782   -0.9129 H   0  0  0  0  0  0  0  0  0  0  0  0
    2.3915    0.2028    0.3045 H   0  0  0  0  0  0  0  0  0  0  0  0
    3.9236    2.3793   -2.2878 H   0  0  0  0  0  0  0  0  0  0  0  0
    6.1575    1.9910   -3.2469 H   0  0  0  0  0  0  0  0  0  0  0  0
    4.6927   -0.6155    0.7134 H   0  0  0  0  0  0  0  0  0  0  0  0
  1  2  3  0
  2  3  1  0
  3  4  1  0
  4  5  1  0
  5  6  1  0
  5  7  1  0
  5  8  1  0
  8  9  1  0
  9 10  1  0
 10 11  2  0
 10 12  1  0
 12 13  1  0
 13 14  1  0
 14 15  2  0
 14 16  1  0
 16 17  2  0
 17 18  1  0
 18 19  1  0
 19 20  1  0
 20 21  1  0
 21 22  1  0
 22 23  1  0
 23 24  2  0
 24 25  1  0
 25 26  2  0
 26 27  1  0
 26 28  1  0
 28 29  1  0
 28 30  2  0
 19 31  2  0
  9  3  1  0
 31 16  1  0
 30 23  1  0
  3 32  1  6
  4 33  1  0
  4 34  1  0
  8 35  1  0
  8 36  1  0
 12 37  1  0
 12 38  1  0
 13 39  1  0
 17 40  1  0
 20 41  1  0
 20 42  1  0
 21 43  1  0
 21 44  1  0
 22 45  1  0
 22 46  1  0
 24 47  1  0
 25 48  1  0
 30 49  1  0
M  END
$$$$
