
     RDKit          3D

 51 53  0  0  0  0  0  0  0  0999 V2000
   -0.8158    2.3284   -0.2204 N   0  0  0  0  0  0  0  0  0  0  0  0
   -1.3533    1.0168   -0.5971 C   0  0  1  0  0  0  0  0  0  0  0  0
   -0.2218    0.1430   -1.1811 C   0  0  0  0  0  0  0  0  0  0  0  0
    0.6577   -0.3588   -0.1131 N   0  0  0  0  0  0  0  0  0  0  0  0
    2.0911   -0.3808   -0.2678 C   0  0  0  0  0  0  0  0  0  0  0  0
    2.6924   -0.5522   -1.5232 C   0  0  0  0  0  0  0  0  0  0  0  0
    4.0807   -0.5804   -1.6191 C   0  0  0  0  0  0  0  0  0  0  0  0
    4.8461   -0.4472   -0.4624 C   0  0  0  0  0  0  0  0  0  0  0  0
    6.2033   -0.4739   -0.5340 N   0  0  0  0  0  0  0  0  0  0  0  0
    6.9642   -0.3510    0.5834 C   0  0  0  0  0  0  0  0  0  0  0  0
    8.2194   -0.3777    0.4936 O   0  0  0  0  0  0  0  0  0  0  0  0
    6.3526   -0.1962    1.8272 C   0  0  0  0  0  0  0  0  0  0  0  0
    4.9594   -0.1714    1.8879 C   0  0  0  0  0  0  0  0  0  0  0  0
    4.2212   -0.2956    0.7501 N   0  0  0  0  0  0  0  0  0  0  0  0
    2.8884   -0.2685    0.8308 N   0  0  0  0  0  0  0  0  0  0  0  0
    0.0747   -0.9284    1.1108 C   0  0  0  0  0  0  0  0  0  0  0  0
   -1.4514   -1.0196    1.0171 C   0  0  0  0  0  0  0  0  0  0  0  0
   -2.0494    0.3501    0.6392 C   0  0  2  0  0  0  0  0  0  0  0  0
   -3.5572    0.2481    0.4607 C   0  0  0  0  0  0  0  0  0  0  0  0
   -4.4118    0.8962    1.3730 C   0  0  0  0  0  0  0  0  0  0  0  0
   -5.8001    0.8089    1.2335 C   0  0  0  0  0  0  0  0  0  0  0  0
   -6.6090    1.4396    2.1206 F   0  0  0  0  0  0  0  0  0  0  0  0
   -6.3534    0.0731    0.1831 C   0  0  0  0  0  0  0  0  0  0  0  0
   -7.7000   -0.0118    0.0470 F   0  0  0  0  0  0  0  0  0  0  0  0
   -5.5190   -0.5760   -0.7292 C   0  0  0  0  0  0  0  0  0  0  0  0
   -4.1292   -0.4939   -0.5965 C   0  0  0  0  0  0  0  0  0  0  0  0
   -3.3487   -1.1304   -1.5056 F   0  0  0  0  0  0  0  0  0  0  0  0
    0.7348   -0.0042   -1.5552 O   0  0  0  0  0  0  0  0  0  0  0  0
    0.4667    0.0089   -0.3239 C   0  0  0  0  0  0  0  0  0  0  0  0
    1.4964   -0.0519    0.6104 O   0  0  0  0  0  0  0  0  0  0  0  0
   -0.9564    0.0296    0.1315 C   0  0  0  0  0  0  0  0  0  0  0  0
   -1.4620   -1.2565    0.1141 F   0  0  0  0  0  0  0  0  0  0  0  0
   -1.7103    0.8279   -0.7096 F   0  0  0  0  0  0  0  0  0  0  0  0
   -1.0340    0.5318    1.4176 F   0  0  0  0  0  0  0  0  0  0  0  0
   -0.4374    2.7948   -1.0771 H   0  0  0  0  0  0  0  0  0  0  0  0
   -1.6118    2.9287    0.0974 H   0  0  0  0  0  0  0  0  0  0  0  0
   -2.0917    1.1761   -1.4162 H   0  0  0  0  0  0  0  0  0  0  0  0
   -0.6584   -0.7218   -1.7255 H   0  0  0  0  0  0  0  0  0  0  0  0
    0.3494    0.7435   -1.9215 H   0  0  0  0  0  0  0  0  0  0  0  0
    2.0990   -0.6872   -2.4176 H   0  0  0  0  0  0  0  0  0  0  0  0
    4.5554   -0.7129   -2.5836 H   0  0  0  0  0  0  0  0  0  0  0  0
    6.9425   -0.0971    2.7301 H   0  0  0  0  0  0  0  0  0  0  0  0
    4.4708   -0.0518    2.8478 H   0  0  0  0  0  0  0  0  0  0  0  0
    0.3531   -0.2945    1.9807 H   0  0  0  0  0  0  0  0  0  0  0  0
    0.4823   -1.9494    1.2770 H   0  0  0  0  0  0  0  0  0  0  0  0
   -1.7187   -1.7924    0.2654 H   0  0  0  0  0  0  0  0  0  0  0  0
   -1.8585   -1.3495    1.9981 H   0  0  0  0  0  0  0  0  0  0  0  0
   -1.8520    0.9968    1.5253 H   0  0  0  0  0  0  0  0  0  0  0  0
   -4.0049    1.4708    2.1959 H   0  0  0  0  0  0  0  0  0  0  0  0
   -5.9503   -1.1444   -1.5433 H   0  0  0  0  0  0  0  0  0  0  0  0
    2.4648   -0.0857    0.3150 H   0  0  0  0  0  0  0  0  0  0  0  0
  1  2  1  0
  2  3  1  0
  3  4  1  0
  4  5  1  0
  5  6  1  0
  6  7  2  0
  7  8  1  0
  8  9  2  0
  9 10  1  0
 10 11  2  0
 10 12  1  0
 12 13  2  0
 13 14  1  0
 14 15  1  0
  4 16  1  0
 16 17  1  0
 17 18  1  0
 18 19  1  0
 19 20  2  0
 20 21  1  0
 21 22  1  0
 21 23  2  0
 23 24  1  0
 23 25  1  0
 25 26  2  0
 26 27  1  0
 28 29  2  0
 29 30  1  0
 29 31  1  0
 31 32  1  0
 31 33  1  0
 31 34  1  0
 18  2  1  0
 26 19  1  0
 15  5  2  0
 14  8  1  0
  1 35  1  0
  1 36  1  0
  2 37  1  6
  3 38  1  0
  3 39  1  0
  6 40  1  0
  7 41  1  0
 12 42  1  0
 13 43  1  0
 16 44  1  0
 16 45  1  0
 17 46  1  0
 17 47  1  0
 18 48  1  1
 20 49  1  0
 25 50  1  0
 30 51  1  0
M  END
$$$$
