
     RDKit          3D

 60 64  0  0  0  0  0  0  0  0999 V2000
   -5.3213   -0.6605    0.0755 O   0  0  0  0  0  0  0  0  0  0  0  0
   -4.9287    0.4799    0.4433 C   0  0  0  0  0  0  0  0  0  0  0  0
   -5.8499    1.3916    1.0488 N   0  0  0  0  0  0  0  0  0  0  0  0
   -7.2535    1.0378    1.2581 C   0  0  0  0  0  0  0  0  0  0  0  0
   -8.0128    2.1843    1.9190 C   0  0  0  0  0  0  0  0  0  0  0  0
   -9.3344    1.8222    2.1043 F   0  0  0  0  0  0  0  0  0  0  0  0
   -3.5950    0.8787    0.2701 O   0  0  0  0  0  0  0  0  0  0  0  0
   -2.5414    0.0988   -0.3142 C   0  0  0  0  0  0  0  0  0  0  0  0
   -2.2858   -1.1995    0.4997 C   0  0  0  0  0  0  0  0  0  0  0  0
   -1.1181   -1.9926   -0.1283 C   0  0  0  0  0  0  0  0  0  0  0  0
   -1.4644   -2.3518   -1.5878 C   0  0  0  0  0  0  0  0  0  0  0  0
   -1.6899   -1.0585   -2.3972 C   0  0  0  0  0  0  0  0  0  0  0  0
   -0.4106   -0.2002   -2.3584 C   0  0  0  0  0  0  0  0  0  0  0  0
   -0.0491    0.1821   -0.8935 C   0  0  0  0  0  0  0  0  0  0  0  0
    1.1963    0.9902   -0.9216 N   0  0  0  0  0  0  0  0  0  0  0  0
    1.5551    1.6478    0.3448 C   0  0  0  0  0  0  0  0  0  0  0  0
    2.9946    2.0674    0.2980 C   0  0  0  0  0  0  0  0  0  0  0  0
    3.2731    3.2896    0.1632 O   0  0  0  0  0  0  0  0  0  0  0  0
    4.0544    1.1000    0.3797 N   0  0  0  0  0  0  0  0  0  0  0  0
    5.4732    1.4619    0.3703 C   0  0  0  0  0  0  0  0  0  0  0  0
    6.1539    0.1487    0.4731 C   0  0  0  0  0  0  0  0  0  0  0  0
    7.5258   -0.1057    0.5095 C   0  0  0  0  0  0  0  0  0  0  0  0
    7.9580   -1.4383    0.6093 C   0  0  0  0  0  0  0  0  0  0  0  0
    7.0190   -2.4862    0.6701 C   0  0  0  0  0  0  0  0  0  0  0  0
    5.6433   -2.2067    0.6317 C   0  0  0  0  0  0  0  0  0  0  0  0
    5.2366   -0.8751    0.5330 C   0  0  0  0  0  0  0  0  0  0  0  0
    3.8525   -0.3483    0.4745 C   0  0  0  0  0  0  0  0  0  0  0  0
    0.1663   -1.1371   -0.0962 C   0  0  0  0  0  0  0  0  0  0  0  0
   -1.2529    0.9604   -0.2824 C   0  0  0  0  0  0  0  0  0  0  0  0
   -2.8621   -0.2610   -1.7888 C   0  0  0  0  0  0  0  0  0  0  0  0
   -5.4932    2.3294    1.3426 H   0  0  0  0  0  0  0  0  0  0  0  0
   -7.3142    0.1382    1.9081 H   0  0  0  0  0  0  0  0  0  0  0  0
   -7.7253    0.8050    0.2790 H   0  0  0  0  0  0  0  0  0  0  0  0
   -7.9729    3.0881    1.2745 H   0  0  0  0  0  0  0  0  0  0  0  0
   -7.5612    2.4203    2.9060 H   0  0  0  0  0  0  0  0  0  0  0  0
   -3.1881   -1.8454    0.5130 H   0  0  0  0  0  0  0  0  0  0  0  0
   -2.0474   -0.9466    1.5564 H   0  0  0  0  0  0  0  0  0  0  0  0
   -0.9530   -2.9271    0.4512 H   0  0  0  0  0  0  0  0  0  0  0  0
   -0.6381   -2.9436   -2.0395 H   0  0  0  0  0  0  0  0  0  0  0  0
   -2.3792   -2.9838   -1.6176 H   0  0  0  0  0  0  0  0  0  0  0  0
   -1.9281   -1.3194   -3.4514 H   0  0  0  0  0  0  0  0  0  0  0  0
    0.4300   -0.7613   -2.8241 H   0  0  0  0  0  0  0  0  0  0  0  0
   -0.5688    0.7166   -2.9689 H   0  0  0  0  0  0  0  0  0  0  0  0
    1.0999    1.7457   -1.6416 H   0  0  0  0  0  0  0  0  0  0  0  0
    1.4199    0.9787    1.2157 H   0  0  0  0  0  0  0  0  0  0  0  0
    0.9167    2.5456    0.5048 H   0  0  0  0  0  0  0  0  0  0  0  0
    5.7173    2.0986    1.2472 H   0  0  0  0  0  0  0  0  0  0  0  0
    5.7391    1.9665   -0.5830 H   0  0  0  0  0  0  0  0  0  0  0  0
    8.2413    0.7050    0.4619 H   0  0  0  0  0  0  0  0  0  0  0  0
    9.0167   -1.6605    0.6393 H   0  0  0  0  0  0  0  0  0  0  0  0
    7.3588   -3.5108    0.7466 H   0  0  0  0  0  0  0  0  0  0  0  0
    4.9155   -3.0065    0.6772 H   0  0  0  0  0  0  0  0  0  0  0  0
    3.2988   -0.6074    1.4016 H   0  0  0  0  0  0  0  0  0  0  0  0
    3.3344   -0.7290   -0.4304 H   0  0  0  0  0  0  0  0  0  0  0  0
    0.4204   -0.9369    0.9645 H   0  0  0  0  0  0  0  0  0  0  0  0
    1.0112   -1.7137   -0.5329 H   0  0  0  0  0  0  0  0  0  0  0  0
   -1.4161    1.9062   -0.8454 H   0  0  0  0  0  0  0  0  0  0  0  0
   -1.0449    1.2355    0.7744 H   0  0  0  0  0  0  0  0  0  0  0  0
   -3.0371    0.6662   -2.3780 H   0  0  0  0  0  0  0  0  0  0  0  0
   -3.7847   -0.8737   -1.8587 H   0  0  0  0  0  0  0  0  0  0  0  0
  1  2  2  0
  2  3  1  0
  3  4  1  0
  4  5  1  0
  5  6  1  0
  2  7  1  0
  7  8  1  0
  8  9  1  0
  9 10  1  0
 10 11  1  0
 11 12  1  0
 12 13  1  0
 13 14  1  0
 14 15  1  0
 15 16  1  0
 16 17  1  0
 17 18  2  0
 17 19  1  0
 19 20  1  0
 20 21  1  0
 21 22  2  0
 22 23  1  0
 23 24  2  0
 24 25  1  0
 25 26  2  0
 26 27  1  0
 14 28  1  0
 14 29  1  0
 12 30  1  0
 29  8  1  0
 30  8  1  0
 28 10  1  0
 27 19  1  0
 26 21  1  0
  3 31  1  0
  4 32  1  0
  4 33  1  0
  5 34  1  0
  5 35  1  0
  9 36  1  0
  9 37  1  0
 10 38  1  0
 11 39  1  0
 11 40  1  0
 12 41  1  0
 13 42  1  0
 13 43  1  0
 15 44  1  0
 16 45  1  0
 16 46  1  0
 20 47  1  0
 20 48  1  0
 22 49  1  0
 23 50  1  0
 24 51  1  0
 25 52  1  0
 27 53  1  0
 27 54  1  0
 28 55  1  0
 28 56  1  0
 29 57  1  0
 29 58  1  0
 30 59  1  0
 30 60  1  0
M  END
$$$$
