
     RDKit          3D

 52 55  0  0  0  0  0  0  0  0999 V2000
   -8.0028    0.3470   -0.1474 N   0  0  0  0  0  0  0  0  0  0  0  0
   -6.9403   -0.0784   -0.3183 C   0  0  0  0  0  0  0  0  0  0  0  0
   -5.5880   -0.6189   -0.5354 C   0  0  2  0  0  0  0  0  0  0  0  0
   -5.4954   -2.0733   -0.0741 C   0  0  0  0  0  0  0  0  0  0  0  0
   -4.8571   -2.0211    1.3127 C   0  0  0  0  0  0  0  0  0  0  0  0
   -5.8460   -2.0164    2.2833 F   0  0  0  0  0  0  0  0  0  0  0  0
   -4.0190   -3.1049    1.5147 F   0  0  0  0  0  0  0  0  0  0  0  0
   -4.0787   -0.7098    1.3556 C   0  0  0  0  0  0  0  0  0  0  0  0
   -4.6252    0.1071    0.2818 N   0  0  0  0  0  0  0  0  0  0  0  0
   -4.2067    1.4557   -0.0122 C   0  0  0  0  0  0  0  0  0  0  0  0
   -4.7610    2.0870   -0.9528 O   0  0  0  0  0  0  0  0  0  0  0  0
   -3.1276    2.1486    0.7751 C   0  0  0  0  0  0  0  0  0  0  0  0
   -2.0633    2.5997   -0.1181 N   0  0  0  0  0  0  0  0  0  0  0  0
   -1.1597    1.6863   -0.7586 C   0  0  0  0  0  0  0  0  0  0  0  0
   -1.2484    0.4490   -0.5318 O   0  0  0  0  0  0  0  0  0  0  0  0
   -0.1542    2.1864   -1.7234 C   0  0  0  0  0  0  0  0  0  0  0  0
   -0.5772    3.0907   -2.7098 C   0  0  0  0  0  0  0  0  0  0  0  0
    0.3197    3.5402   -3.6770 C   0  0  0  0  0  0  0  0  0  0  0  0
    1.6056    3.1094   -3.6680 N   0  0  0  0  0  0  0  0  0  0  0  0
    2.0666    2.2449   -2.7263 C   0  0  0  0  0  0  0  0  0  0  0  0
    3.4060    1.8497   -2.7547 C   0  0  0  0  0  0  0  0  0  0  0  0
    3.9080    0.9853   -1.7816 C   0  0  0  0  0  0  0  0  0  0  0  0
    3.0728    0.5012   -0.7577 C   0  0  0  0  0  0  0  0  0  0  0  0
    3.5714   -0.3934    0.3170 C   0  0  0  0  0  0  0  0  0  0  0  0
    4.6399   -1.1946    0.1799 C   0  0  0  0  0  0  0  0  0  0  0  0
    5.1397   -2.0923    1.2511 C   0  0  0  0  0  0  0  0  0  0  0  0
    6.4666   -2.5450    1.1841 C   0  0  0  0  0  0  0  0  0  0  0  0
    6.9609   -3.3986    2.1731 C   0  0  0  0  0  0  0  0  0  0  0  0
    6.1569   -3.8001    3.1918 N   0  0  0  0  0  0  0  0  0  0  0  0
    4.8638   -3.3927    3.2798 C   0  0  0  0  0  0  0  0  0  0  0  0
    4.3283   -2.5379    2.3128 C   0  0  0  0  0  0  0  0  0  0  0  0
    1.7290    0.9114   -0.7205 C   0  0  0  0  0  0  0  0  0  0  0  0
    1.2008    1.7629   -1.7141 C   0  0  0  0  0  0  0  0  0  0  0  0
   -5.3228   -0.5395   -1.6123 H   0  0  0  0  0  0  0  0  0  0  0  0
   -6.4798   -2.5927   -0.0557 H   0  0  0  0  0  0  0  0  0  0  0  0
   -4.8233   -2.6277   -0.7661 H   0  0  0  0  0  0  0  0  0  0  0  0
   -2.9985   -0.8939    1.1702 H   0  0  0  0  0  0  0  0  0  0  0  0
   -4.2146   -0.2042    2.3362 H   0  0  0  0  0  0  0  0  0  0  0  0
   -2.6934    1.5022    1.5638 H   0  0  0  0  0  0  0  0  0  0  0  0
   -3.5776    3.0285    1.2828 H   0  0  0  0  0  0  0  0  0  0  0  0
   -1.9408    3.6271   -0.2649 H   0  0  0  0  0  0  0  0  0  0  0  0
   -1.6062    3.4274   -2.7489 H   0  0  0  0  0  0  0  0  0  0  0  0
   -0.0103    4.2284   -4.4436 H   0  0  0  0  0  0  0  0  0  0  0  0
    4.0673    2.2245   -3.5265 H   0  0  0  0  0  0  0  0  0  0  0  0
    4.9582    0.7319   -1.8184 H   0  0  0  0  0  0  0  0  0  0  0  0
    3.0151   -0.3960    1.2441 H   0  0  0  0  0  0  0  0  0  0  0  0
    5.1925   -1.1936   -0.7499 H   0  0  0  0  0  0  0  0  0  0  0  0
    7.1188   -2.2333    0.3772 H   0  0  0  0  0  0  0  0  0  0  0  0
    7.9854   -3.7432    2.1293 H   0  0  0  0  0  0  0  0  0  0  0  0
    4.2467   -3.7392    4.0981 H   0  0  0  0  0  0  0  0  0  0  0  0
    3.2875   -2.2580    2.3918 H   0  0  0  0  0  0  0  0  0  0  0  0
    1.1101    0.5666    0.0964 H   0  0  0  0  0  0  0  0  0  0  0  0
  1  2  3  0
  2  3  1  0
  3  4  1  0
  4  5  1  0
  5  6  1  0
  5  7  1  0
  5  8  1  0
  8  9  1  0
  9 10  1  0
 10 11  2  0
 10 12  1  0
 12 13  1  0
 13 14  1  0
 14 15  2  0
 14 16  1  0
 16 17  2  0
 17 18  1  0
 18 19  2  0
 19 20  1  0
 20 21  2  0
 21 22  1  0
 22 23  2  0
 23 24  1  0
 24 25  2  0
 25 26  1  0
 26 27  2  0
 27 28  1  0
 28 29  2  0
 29 30  1  0
 30 31  2  0
 23 32  1  0
 32 33  2  0
  9  3  1  0
 33 16  1  0
 33 20  1  0
 31 26  1  0
  3 34  1  6
  4 35  1  0
  4 36  1  0
  8 37  1  0
  8 38  1  0
 12 39  1  0
 12 40  1  0
 13 41  1  0
 17 42  1  0
 18 43  1  0
 21 44  1  0
 22 45  1  0
 24 46  1  0
 25 47  1  0
 27 48  1  0
 28 49  1  0
 30 50  1  0
 31 51  1  0
 32 52  1  0
M  END
$$$$
