
     RDKit          3D

 24 25  0  0  0  0  0  0  0  0999 V2000
   -3.4144   -2.2561   -0.2046 N   0  0  0  0  0  0  0  0  0  0  0  0
   -2.7881   -1.3669    0.1907 C   0  0  0  0  0  0  0  0  0  0  0  0
   -1.9913   -0.2371    0.6928 C   0  0  2  0  0  0  0  0  0  0  0  0
   -2.6279    1.0968    0.3161 C   0  0  0  0  0  0  0  0  0  0  0  0
   -1.9368    1.6464   -1.2755 S   0  0  0  0  0  0  0  0  0  0  0  0
   -0.4771    0.5743   -1.0854 C   0  0  1  0  0  0  0  0  0  0  0  0
    0.8017    1.4002   -0.9409 C   0  0  0  0  0  0  0  0  0  0  0  0
    1.9932    0.4566   -0.7366 C   0  0  0  0  0  0  0  0  0  0  0  0
    1.8438   -0.3856    0.5461 C   0  0  2  0  0  0  0  0  0  0  0  0
    2.8474   -1.4527    0.5497 N   0  0  0  0  0  0  0  0  0  0  0  0
    0.4419   -0.9404    0.7040 C   0  0  0  0  0  0  0  0  0  0  0  0
    0.2350   -1.9155    1.4767 O   0  0  0  0  0  0  0  0  0  0  0  0
   -0.6690   -0.2681    0.0872 N   0  0  0  0  0  0  0  0  0  0  0  0
   -1.9180   -0.3088    1.8002 H   0  0  0  0  0  0  0  0  0  0  0  0
   -2.3621    1.8577    1.0809 H   0  0  0  0  0  0  0  0  0  0  0  0
   -3.7364    1.0357    0.2564 H   0  0  0  0  0  0  0  0  0  0  0  0
   -0.4010   -0.0714   -1.9872 H   0  0  0  0  0  0  0  0  0  0  0  0
    0.7158    2.0935   -0.0752 H   0  0  0  0  0  0  0  0  0  0  0  0
    0.9626    2.0022   -1.8613 H   0  0  0  0  0  0  0  0  0  0  0  0
    2.0831   -0.2120   -1.6218 H   0  0  0  0  0  0  0  0  0  0  0  0
    2.9267    1.0568   -0.6737 H   0  0  0  0  0  0  0  0  0  0  0  0
    2.0349    0.2834    1.4144 H   0  0  0  0  0  0  0  0  0  0  0  0
    2.8597   -1.9034    1.4937 H   0  0  0  0  0  0  0  0  0  0  0  0
    2.5762   -2.1856   -0.1467 H   0  0  0  0  0  0  0  0  0  0  0  0
  1  2  3  0
  2  3  1  0
  3  4  1  0
  4  5  1  0
  5  6  1  0
  6  7  1  0
  7  8  1  0
  8  9  1  0
  9 10  1  0
  9 11  1  0
 11 12  2  0
 11 13  1  0
 13  3  1  0
 13  6  1  0
  3 14  1  1
  4 15  1  0
  4 16  1  0
  6 17  1  6
  7 18  1  0
  7 19  1  0
  8 20  1  0
  8 21  1  0
  9 22  1  1
 10 23  1  0
 10 24  1  0
M  END
$$$$
