
     RDKit          3D

 43 44  0  0  0  0  0  0  0  0999 V2000
    7.6914    0.9231    0.2048 C   0  0  0  0  0  0  0  0  0  0  0  0
    6.3787    0.2296    0.5554 C   0  0  0  0  0  0  0  0  0  0  0  0
    5.4705    1.1473    1.3795 C   0  0  0  0  0  0  0  0  0  0  0  0
    4.2526    0.4811    1.7132 O   0  0  0  0  0  0  0  0  0  0  0  0
    3.1792    0.2527    0.8361 C   0  0  0  0  0  0  0  0  0  0  0  0
    3.1437    0.7616   -0.4765 C   0  0  0  0  0  0  0  0  0  0  0  0
    2.0466    0.5039   -1.3039 C   0  0  0  0  0  0  0  0  0  0  0  0
    0.9598   -0.2503   -0.8334 C   0  0  0  0  0  0  0  0  0  0  0  0
   -0.1869   -0.5340   -1.7293 C   0  0  0  0  0  0  0  0  0  0  0  0
    0.0322   -0.7317   -2.9545 O   0  0  0  0  0  0  0  0  0  0  0  0
   -1.5830   -0.6152   -1.2520 C   0  0  0  0  0  0  0  0  0  0  0  0
   -2.0246    0.0540   -0.1786 C   0  0  0  0  0  0  0  0  0  0  0  0
   -3.4197   -0.0402    0.3060 C   0  0  0  0  0  0  0  0  0  0  0  0
   -3.6311   -0.1342    1.6899 C   0  0  0  0  0  0  0  0  0  0  0  0
   -4.9238   -0.2319    2.2097 C   0  0  0  0  0  0  0  0  0  0  0  0
   -5.1649   -0.3822    4.1020 Br  0  0  0  0  0  0  0  0  0  0  0  0
   -6.0265   -0.2221    1.3491 C   0  0  0  0  0  0  0  0  0  0  0  0
   -7.3154   -0.3267    1.8698 O   0  0  0  0  0  0  0  0  0  0  0  0
   -5.8300   -0.1010   -0.0323 C   0  0  0  0  0  0  0  0  0  0  0  0
   -4.5305    0.0074   -0.5673 C   0  0  0  0  0  0  0  0  0  0  0  0
   -4.3170    0.1908   -1.9440 O   0  0  0  0  0  0  0  0  0  0  0  0
   -5.3481    0.2568   -2.9236 C   0  0  0  0  0  0  0  0  0  0  0  0
    1.0047   -0.7688    0.4719 C   0  0  0  0  0  0  0  0  0  0  0  0
    2.1017   -0.5110    1.2981 C   0  0  0  0  0  0  0  0  0  0  0  0
    8.2376    1.2067    1.1297 H   0  0  0  0  0  0  0  0  0  0  0  0
    7.4959    1.8341   -0.4003 H   0  0  0  0  0  0  0  0  0  0  0  0
    8.3295    0.2337   -0.3872 H   0  0  0  0  0  0  0  0  0  0  0  0
    6.5978   -0.6902    1.1397 H   0  0  0  0  0  0  0  0  0  0  0  0
    5.8693   -0.0710   -0.3841 H   0  0  0  0  0  0  0  0  0  0  0  0
    5.9899    1.4063    2.3267 H   0  0  0  0  0  0  0  0  0  0  0  0
    5.2623    2.0994    0.8460 H   0  0  0  0  0  0  0  0  0  0  0  0
    3.9540    1.3579   -0.8707 H   0  0  0  0  0  0  0  0  0  0  0  0
    2.0407    0.9055   -2.3099 H   0  0  0  0  0  0  0  0  0  0  0  0
   -2.2703   -1.2180   -1.8319 H   0  0  0  0  0  0  0  0  0  0  0  0
   -1.3321    0.6431    0.4099 H   0  0  0  0  0  0  0  0  0  0  0  0
   -2.7858   -0.1493    2.3679 H   0  0  0  0  0  0  0  0  0  0  0  0
   -8.1325   -0.3207    1.2705 H   0  0  0  0  0  0  0  0  0  0  0  0
   -6.6965   -0.0790   -0.6788 H   0  0  0  0  0  0  0  0  0  0  0  0
   -5.9274   -0.6905   -2.9327 H   0  0  0  0  0  0  0  0  0  0  0  0
   -4.8889    0.4013   -3.9229 H   0  0  0  0  0  0  0  0  0  0  0  0
   -6.0199    1.1159   -2.7140 H   0  0  0  0  0  0  0  0  0  0  0  0
    0.1981   -1.3849    0.8492 H   0  0  0  0  0  0  0  0  0  0  0  0
    2.1187   -0.9146    2.3027 H   0  0  0  0  0  0  0  0  0  0  0  0
  1  2  1  0
  2  3  1  0
  3  4  1  0
  4  5  1  0
  5  6  2  0
  6  7  1  0
  7  8  2  0
  8  9  1  0
  9 10  2  0
  9 11  1  0
 11 12  2  0
 12 13  1  0
 13 14  2  0
 14 15  1  0
 15 16  1  0
 15 17  2  0
 17 18  1  0
 17 19  1  0
 19 20  2  0
 20 21  1  0
 21 22  1  0
  8 23  1  0
 23 24  2  0
 24  5  1  0
 20 13  1  0
  1 25  1  0
  1 26  1  0
  1 27  1  0
  2 28  1  0
  2 29  1  0
  3 30  1  0
  3 31  1  0
  6 32  1  0
  7 33  1  0
 11 34  1  0
 12 35  1  0
 14 36  1  0
 18 37  1  0
 19 38  1  0
 22 39  1  0
 22 40  1  0
 22 41  1  0
 23 42  1  0
 24 43  1  0
M  END
$$$$
