
     RDKit          3D

 63 62  0  0  0  0  0  0  0  0999 V2000
    1.7839    4.8810   -0.6550 C   0  0  0  0  0  0  0  0  0  0  0  0
    1.1961    3.5412   -0.3261 C   0  0  0  0  0  0  0  0  0  0  0  0
    0.9346    2.6153   -1.3479 C   0  0  0  0  0  0  0  0  0  0  0  0
    0.3713    1.3726   -1.0452 C   0  0  0  0  0  0  0  0  0  0  0  0
    0.0494    1.0485    0.2800 C   0  0  0  0  0  0  0  0  0  0  0  0
   -0.5412   -0.2729    0.5959 C   0  0  0  0  0  0  0  0  0  0  0  0
   -1.9511   -0.4293    0.6793 C   0  0  0  0  0  0  0  0  0  0  0  0
   -2.8748    0.7687    0.5276 C   0  0  0  0  0  0  0  0  0  0  0  0
   -3.4747    0.7757   -0.8021 N   0  0  0  0  0  0  0  0  0  0  0  0
   -2.4747   -1.7376    0.8522 C   0  0  0  0  0  0  0  0  0  0  0  0
   -3.9566   -2.0571    0.8688 C   0  0  0  0  0  0  0  0  0  0  0  0
   -4.3442   -3.0581   -0.2425 C   0  0  0  0  0  0  0  0  0  0  0  0
   -5.7990   -3.5102   -0.0660 C   0  0  0  0  0  0  0  0  0  0  0  0
   -4.1485   -2.4517   -1.6397 C   0  0  0  0  0  0  0  0  0  0  0  0
   -1.6212   -2.7829    1.0022 N   0  0  0  0  0  0  0  0  0  0  0  0
   -0.2724   -2.6611    0.9644 C   0  0  0  0  0  0  0  0  0  0  0  0
    0.5540   -3.9009    1.1533 C   0  0  0  0  0  0  0  0  0  0  0  0
    0.3074   -1.3974    0.7360 C   0  0  0  0  0  0  0  0  0  0  0  0
    1.7791   -1.2484    0.6446 C   0  0  0  0  0  0  0  0  0  0  0  0
    2.4421   -2.0012   -0.1203 O   0  0  0  0  0  0  0  0  0  0  0  0
    2.4244   -0.2694    1.4091 O   0  0  0  0  0  0  0  0  0  0  0  0
    3.8066    0.0504    1.2690 C   0  0  0  0  0  0  0  0  0  0  0  0
    4.0223    0.9227    0.0307 C   0  0  0  0  0  0  0  0  0  0  0  0
    5.4971    1.2908   -0.1415 C   0  0  0  0  0  0  0  0  0  0  0  0
    5.6757    2.1682   -1.3398 C   0  0  0  0  0  0  0  0  0  0  0  0
    5.5595    3.4182   -1.2301 O   0  0  0  0  0  0  0  0  0  0  0  0
    5.9217    1.5989   -2.5851 O   0  0  0  0  0  0  0  0  0  0  0  0
    0.2946    1.9782    1.3010 C   0  0  0  0  0  0  0  0  0  0  0  0
    0.8580    3.2213    0.9983 C   0  0  0  0  0  0  0  0  0  0  0  0
    0.6878    0.0000    0.0000 Cl  0  0  0  0  0  0  0  0  0  0  0  0
    0.6878    0.0000    0.0000 Cl  0  0  0  0  0  0  0  0  0  0  0  0
    2.4715    4.8023   -1.5240 H   0  0  0  0  0  0  0  0  0  0  0  0
    2.3643    5.2774    0.2053 H   0  0  0  0  0  0  0  0  0  0  0  0
    0.9679    5.5922   -0.9006 H   0  0  0  0  0  0  0  0  0  0  0  0
    1.1734    2.8528   -2.3772 H   0  0  0  0  0  0  0  0  0  0  0  0
    0.1837    0.6631   -1.8418 H   0  0  0  0  0  0  0  0  0  0  0  0
   -2.3552    1.7332    0.7019 H   0  0  0  0  0  0  0  0  0  0  0  0
   -3.6676    0.7385    1.3041 H   0  0  0  0  0  0  0  0  0  0  0  0
   -2.7220    0.9852   -1.4977 H   0  0  0  0  0  0  0  0  0  0  0  0
   -4.1510    1.5720   -0.8439 H   0  0  0  0  0  0  0  0  0  0  0  0
   -4.1862   -2.5065    1.8594 H   0  0  0  0  0  0  0  0  0  0  0  0
   -4.6001   -1.1619    0.7744 H   0  0  0  0  0  0  0  0  0  0  0  0
   -3.7016   -3.9628   -0.1609 H   0  0  0  0  0  0  0  0  0  0  0  0
   -6.0678   -4.2534   -0.8469 H   0  0  0  0  0  0  0  0  0  0  0  0
   -6.4914   -2.6441   -0.1416 H   0  0  0  0  0  0  0  0  0  0  0  0
   -5.9335   -3.9913    0.9262 H   0  0  0  0  0  0  0  0  0  0  0  0
   -4.4167   -3.1955   -2.4200 H   0  0  0  0  0  0  0  0  0  0  0  0
   -3.0871   -2.1647   -1.7951 H   0  0  0  0  0  0  0  0  0  0  0  0
   -4.7880   -1.5527   -1.7696 H   0  0  0  0  0  0  0  0  0  0  0  0
    0.9859   -4.2164    0.1808 H   0  0  0  0  0  0  0  0  0  0  0  0
   -0.0743   -4.7300    1.5430 H   0  0  0  0  0  0  0  0  0  0  0  0
    1.3690   -3.7156    1.8843 H   0  0  0  0  0  0  0  0  0  0  0  0
    4.4132   -0.8799    1.2085 H   0  0  0  0  0  0  0  0  0  0  0  0
    4.1272    0.6133    2.1713 H   0  0  0  0  0  0  0  0  0  0  0  0
    3.6670    0.3802   -0.8726 H   0  0  0  0  0  0  0  0  0  0  0  0
    3.4241    1.8514    0.1418 H   0  0  0  0  0  0  0  0  0  0  0  0
    5.8634    1.8239    0.7631 H   0  0  0  0  0  0  0  0  0  0  0  0
    6.1030    0.3680   -0.2716 H   0  0  0  0  0  0  0  0  0  0  0  0
    6.0261    2.1782   -3.4095 H   0  0  0  0  0  0  0  0  0  0  0  0
    0.0476    1.7390    2.3279 H   0  0  0  0  0  0  0  0  0  0  0  0
    1.0363    3.9308    1.7967 H   0  0  0  0  0  0  0  0  0  0  0  0
   -0.6878    0.0000    0.0000 H   0  0  0  0  0  0  0  0  0  0  0  0
   -0.6878    0.0000    0.0000 H   0  0  0  0  0  0  0  0  0  0  0  0
  1  2  1  0
  2  3  2  0
  3  4  1  0
  4  5  2  0
  5  6  1  0
  6  7  2  0
  7  8  1  0
  8  9  1  0
  7 10  1  0
 10 11  1  0
 11 12  1  0
 12 13  1  0
 12 14  1  0
 10 15  2  0
 15 16  1  0
 16 17  1  0
 16 18  2  0
 18 19  1  0
 19 20  2  0
 19 21  1  0
 21 22  1  0
 22 23  1  0
 23 24  1  0
 24 25  1  0
 25 26  2  0
 25 27  1  0
  5 28  1  0
 28 29  2  0
 29  2  1  0
 18  6  1  0
  1 32  1  0
  1 33  1  0
  1 34  1  0
  3 35  1  0
  4 36  1  0
  8 37  1  0
  8 38  1  0
  9 39  1  0
  9 40  1  0
 11 41  1  0
 11 42  1  0
 12 43  1  0
 13 44  1  0
 13 45  1  0
 13 46  1  0
 14 47  1  0
 14 48  1  0
 14 49  1  0
 17 50  1  0
 17 51  1  0
 17 52  1  0
 22 53  1  0
 22 54  1  0
 23 55  1  0
 23 56  1  0
 24 57  1  0
 24 58  1  0
 27 59  1  0
 28 60  1  0
 29 61  1  0
 30 62  1  0
 31 63  1  0
M  END
$$$$
