
     RDKit          3D

 62 65  0  0  0  0  0  0  0  0999 V2000
   -0.7987    4.1524   -2.6451 C   0  0  0  0  0  0  0  0  0  0  0  0
   -0.9548    3.2828   -1.4796 C   0  0  0  0  0  0  0  0  0  0  0  0
   -1.0839    2.5642   -0.5208 C   0  0  0  0  0  0  0  0  0  0  0  0
   -1.2421    1.6848    0.6409 C   0  0  0  0  0  0  0  0  0  0  0  0
   -1.2197    0.2827    0.2173 N   0  0  0  0  0  0  0  0  0  0  0  0
   -2.2728   -0.5679    0.0637 C   0  0  0  0  0  0  0  0  0  0  0  0
   -3.6495   -0.1857    0.2135 N   0  0  0  0  0  0  0  0  0  0  0  0
   -4.1904    0.9597   -0.5312 C   0  0  0  0  0  0  0  0  0  0  0  0
   -5.5223    0.5758   -1.1815 C   0  0  0  0  0  0  0  0  0  0  0  0
   -6.5488    0.0300   -0.1650 C   0  0  0  0  0  0  0  0  0  0  0  0
   -5.9209   -0.4102    1.1802 C   0  0  1  0  0  0  0  0  0  0  0  0
   -6.8081   -1.3177    1.9103 N   0  0  0  0  0  0  0  0  0  0  0  0
   -4.5469   -1.0670    0.9721 C   0  0  0  0  0  0  0  0  0  0  0  0
   -1.9067   -1.8376   -0.2498 N   0  0  0  0  0  0  0  0  0  0  0  0
   -0.5642   -1.7519   -0.3107 C   0  0  0  0  0  0  0  0  0  0  0  0
   -0.1473   -0.4920   -0.0411 C   0  0  0  0  0  0  0  0  0  0  0  0
    1.2085   -0.1832   -0.0687 C   0  0  0  0  0  0  0  0  0  0  0  0
    1.6067    0.9886    0.1759 O   0  0  0  0  0  0  0  0  0  0  0  0
    2.1021   -1.1847   -0.3774 N   0  0  0  0  0  0  0  0  0  0  0  0
    3.5488   -0.8771   -0.4071 C   0  0  0  0  0  0  0  0  0  0  0  0
    4.1371   -0.7322    0.9885 C   0  0  0  0  0  0  0  0  0  0  0  0
    3.5677   -1.4450    2.0647 C   0  0  0  0  0  0  0  0  0  0  0  0
    4.0507   -1.2885    3.3635 C   0  0  0  0  0  0  0  0  0  0  0  0
    5.1202   -0.4320    3.6139 C   0  0  0  0  0  0  0  0  0  0  0  0
    5.7191   -0.2328    5.2508 Cl  0  0  0  0  0  0  0  0  0  0  0  0
    5.7291    0.2496    2.5593 C   0  0  0  0  0  0  0  0  0  0  0  0
    5.2724    0.0905    1.2384 C   0  0  0  0  0  0  0  0  0  0  0  0
    6.0225    0.7798    0.1619 C   0  0  0  0  0  0  0  0  0  0  0  0
    6.1485    0.2453   -0.9741 O   0  0  0  0  0  0  0  0  0  0  0  0
    6.6389    2.0068    0.4301 O   0  0  0  0  0  0  0  0  0  0  0  0
    7.3916    2.7171   -0.5458 C   0  0  0  0  0  0  0  0  0  0  0  0
    1.6474   -2.4680   -0.6402 C   0  0  0  0  0  0  0  0  0  0  0  0
    2.4723   -3.3829   -0.9210 O   0  0  0  0  0  0  0  0  0  0  0  0
    0.3021   -2.7619   -0.5938 N   0  0  0  0  0  0  0  0  0  0  0  0
   -0.1905   -4.1103   -0.9068 C   0  0  0  0  0  0  0  0  0  0  0  0
    0.1290    3.8791   -3.1886 H   0  0  0  0  0  0  0  0  0  0  0  0
   -0.7352    5.2089   -2.3126 H   0  0  0  0  0  0  0  0  0  0  0  0
   -1.6719    4.0282   -3.3182 H   0  0  0  0  0  0  0  0  0  0  0  0
   -0.4265    1.8790    1.3675 H   0  0  0  0  0  0  0  0  0  0  0  0
   -2.1930    1.9220    1.1586 H   0  0  0  0  0  0  0  0  0  0  0  0
   -4.3469    1.8161    0.1589 H   0  0  0  0  0  0  0  0  0  0  0  0
   -3.4858    1.2748   -1.3311 H   0  0  0  0  0  0  0  0  0  0  0  0
   -5.3221   -0.2036   -1.9497 H   0  0  0  0  0  0  0  0  0  0  0  0
   -5.9460    1.4593   -1.7063 H   0  0  0  0  0  0  0  0  0  0  0  0
   -7.3096    0.8140    0.0427 H   0  0  0  0  0  0  0  0  0  0  0  0
   -7.0836   -0.8249   -0.6341 H   0  0  0  0  0  0  0  0  0  0  0  0
   -5.7663    0.4979    1.8059 H   0  0  0  0  0  0  0  0  0  0  0  0
   -7.7178   -0.8299    2.0797 H   0  0  0  0  0  0  0  0  0  0  0  0
   -7.0093   -2.1579    1.3200 H   0  0  0  0  0  0  0  0  0  0  0  0
   -4.0972   -1.2810    1.9665 H   0  0  0  0  0  0  0  0  0  0  0  0
   -4.6657   -2.0280    0.4252 H   0  0  0  0  0  0  0  0  0  0  0  0
    3.6850    0.0643   -0.9812 H   0  0  0  0  0  0  0  0  0  0  0  0
    4.1237   -1.6530   -0.9554 H   0  0  0  0  0  0  0  0  0  0  0  0
    2.7348   -2.1175    1.9105 H   0  0  0  0  0  0  0  0  0  0  0  0
    3.5879   -1.8328    4.1769 H   0  0  0  0  0  0  0  0  0  0  0  0
    6.5822    0.8834    2.7706 H   0  0  0  0  0  0  0  0  0  0  0  0
    6.7464    2.9690   -1.4140 H   0  0  0  0  0  0  0  0  0  0  0  0
    7.7745    3.6568   -0.0976 H   0  0  0  0  0  0  0  0  0  0  0  0
    8.2526    2.1023   -0.8834 H   0  0  0  0  0  0  0  0  0  0  0  0
    0.4785   -4.8819   -0.4692 H   0  0  0  0  0  0  0  0  0  0  0  0
   -1.2031   -4.2817   -0.4834 H   0  0  0  0  0  0  0  0  0  0  0  0
   -0.2326   -4.2441   -2.0082 H   0  0  0  0  0  0  0  0  0  0  0  0
  1  2  1  0
  2  3  3  0
  3  4  1  0
  4  5  1  0
  5  6  1  0
  6  7  1  0
  7  8  1  0
  8  9  1  0
  9 10  1  0
 10 11  1  0
 11 12  1  0
 11 13  1  0
  6 14  2  0
 14 15  1  0
 15 16  2  0
 16 17  1  0
 17 18  2  0
 17 19  1  0
 19 20  1  0
 20 21  1  0
 21 22  2  0
 22 23  1  0
 23 24  2  0
 24 25  1  0
 24 26  1  0
 26 27  2  0
 27 28  1  0
 28 29  2  0
 28 30  1  0
 30 31  1  0
 19 32  1  0
 32 33  2  0
 32 34  1  0
 34 35  1  0
 16  5  1  0
 27 21  1  0
 13  7  1  0
 34 15  1  0
  1 36  1  0
  1 37  1  0
  1 38  1  0
  4 39  1  0
  4 40  1  0
  8 41  1  0
  8 42  1  0
  9 43  1  0
  9 44  1  0
 10 45  1  0
 10 46  1  0
 11 47  1  1
 12 48  1  0
 12 49  1  0
 13 50  1  0
 13 51  1  0
 20 52  1  0
 20 53  1  0
 22 54  1  0
 23 55  1  0
 26 56  1  0
 31 57  1  0
 31 58  1  0
 31 59  1  0
 35 60  1  0
 35 61  1  0
 35 62  1  0
M  END
$$$$
