
     RDKit          3D

 55 57  0  0  0  0  0  0  0  0999 V2000
   -4.2202   -1.3897   -1.8886 N   0  0  0  0  0  0  0  0  0  0  0  0
   -3.6699   -1.5543   -0.5374 C   0  0  2  0  0  0  0  0  0  0  0  0
   -4.6720   -1.0708    0.4937 C   0  0  0  0  0  0  0  0  0  0  0  0
   -4.9893   -1.8665    1.4202 O   0  0  0  0  0  0  0  0  0  0  0  0
   -5.2320    0.2606    0.4988 N   0  0  0  0  0  0  0  0  0  0  0  0
   -5.9992    0.7639    1.6280 C   0  0  0  0  0  0  0  0  0  0  0  0
   -6.6414    2.0614    1.1533 C   0  0  2  0  0  0  0  0  0  0  0  0
   -7.9647    1.8322    0.8121 F   0  0  0  0  0  0  0  0  0  0  0  0
   -5.8572    2.4768   -0.0882 C   0  0  1  0  0  0  0  0  0  0  0  0
   -4.8741    3.3867    0.2671 F   0  0  0  0  0  0  0  0  0  0  0  0
   -5.2124    1.1995   -0.6130 C   0  0  0  0  0  0  0  0  0  0  0  0
   -2.2662   -0.8934   -0.3682 C   0  0  1  0  0  0  0  0  0  0  0  0
   -1.7251   -1.0882    1.0690 C   0  0  0  0  0  0  0  0  0  0  0  0
   -0.3313   -0.4706    1.2326 C   0  0  0  0  0  0  0  0  0  0  0  0
    0.6610   -1.0659    0.2196 C   0  0  2  0  0  0  0  0  0  0  0  0
    1.9773   -0.4367    0.3686 N   0  0  0  0  0  0  0  0  0  0  0  0
    3.1724   -1.0166   -0.1670 C   0  0  0  0  0  0  0  0  0  0  0  0
    3.1288   -2.1228   -0.7732 O   0  0  0  0  0  0  0  0  0  0  0  0
    4.3878   -0.3463   -0.0051 O   0  0  0  0  0  0  0  0  0  0  0  0
    5.6188   -0.8550   -0.5070 C   0  0  0  0  0  0  0  0  0  0  0  0
    6.7241    0.1017   -0.1687 C   0  0  0  0  0  0  0  0  0  0  0  0
    7.0367    1.1590   -1.0391 C   0  0  0  0  0  0  0  0  0  0  0  0
    8.0420    2.0720   -0.7049 C   0  0  0  0  0  0  0  0  0  0  0  0
    8.7321    1.9429    0.5037 C   0  0  0  0  0  0  0  0  0  0  0  0
    8.4145    0.9034    1.3825 C   0  0  0  0  0  0  0  0  0  0  0  0
    7.4099   -0.0117    1.0520 C   0  0  0  0  0  0  0  0  0  0  0  0
    0.1382   -0.8607   -1.2116 C   0  0  0  0  0  0  0  0  0  0  0  0
   -1.2559   -1.4764   -1.3846 C   0  0  0  0  0  0  0  0  0  0  0  0
   -3.8650   -2.1638   -2.4961 H   0  0  0  0  0  0  0  0  0  0  0  0
   -3.8852   -0.4971   -2.3164 H   0  0  0  0  0  0  0  0  0  0  0  0
   -3.5351   -2.6480   -0.3623 H   0  0  0  0  0  0  0  0  0  0  0  0
   -5.3143    0.9577    2.4819 H   0  0  0  0  0  0  0  0  0  0  0  0
   -6.7774    0.0304    1.9329 H   0  0  0  0  0  0  0  0  0  0  0  0
   -6.6015    2.8431    1.9429 H   0  0  0  0  0  0  0  0  0  0  0  0
   -6.5177    2.9391   -0.8537 H   0  0  0  0  0  0  0  0  0  0  0  0
   -5.8126    0.7916   -1.4546 H   0  0  0  0  0  0  0  0  0  0  0  0
   -4.1776    1.4096   -0.9467 H   0  0  0  0  0  0  0  0  0  0  0  0
   -2.3492    0.1973   -0.5553 H   0  0  0  0  0  0  0  0  0  0  0  0
   -2.4020   -0.5986    1.8015 H   0  0  0  0  0  0  0  0  0  0  0  0
   -1.6801   -2.1723    1.3154 H   0  0  0  0  0  0  0  0  0  0  0  0
   -0.3998    0.6319    1.0973 H   0  0  0  0  0  0  0  0  0  0  0  0
    0.0329   -0.6673    2.2644 H   0  0  0  0  0  0  0  0  0  0  0  0
    0.7557   -2.1561    0.4263 H   0  0  0  0  0  0  0  0  0  0  0  0
    2.0701    0.4529    0.9099 H   0  0  0  0  0  0  0  0  0  0  0  0
    5.8242   -1.8512   -0.0572 H   0  0  0  0  0  0  0  0  0  0  0  0
    5.5494   -0.9843   -1.6095 H   0  0  0  0  0  0  0  0  0  0  0  0
    6.5028    1.2760   -1.9741 H   0  0  0  0  0  0  0  0  0  0  0  0
    8.2834    2.8819   -1.3811 H   0  0  0  0  0  0  0  0  0  0  0  0
    9.5088    2.6512    0.7616 H   0  0  0  0  0  0  0  0  0  0  0  0
    8.9443    0.8089    2.3216 H   0  0  0  0  0  0  0  0  0  0  0  0
    7.1668   -0.8067    1.7462 H   0  0  0  0  0  0  0  0  0  0  0  0
    0.8308   -1.3378   -1.9375 H   0  0  0  0  0  0  0  0  0  0  0  0
    0.0956    0.2262   -1.4459 H   0  0  0  0  0  0  0  0  0  0  0  0
   -1.1874   -2.5802   -1.2624 H   0  0  0  0  0  0  0  0  0  0  0  0
   -1.5928   -1.2690   -2.4223 H   0  0  0  0  0  0  0  0  0  0  0  0
  1  2  1  0
  2  3  1  0
  3  4  2  0
  3  5  1  0
  5  6  1  0
  6  7  1  0
  7  8  1  0
  7  9  1  0
  9 10  1  0
  9 11  1  0
  2 12  1  0
 12 13  1  0
 13 14  1  0
 14 15  1  0
 15 16  1  0
 16 17  1  0
 17 18  2  0
 17 19  1  0
 19 20  1  0
 20 21  1  0
 21 22  2  0
 22 23  1  0
 23 24  2  0
 24 25  1  0
 25 26  2  0
 15 27  1  0
 27 28  1  0
 11  5  1  0
 28 12  1  0
 26 21  1  0
  1 29  1  0
  1 30  1  0
  2 31  1  1
  6 32  1  0
  6 33  1  0
  7 34  1  1
  9 35  1  6
 11 36  1  0
 11 37  1  0
 12 38  1  6
 13 39  1  0
 13 40  1  0
 14 41  1  0
 14 42  1  0
 15 43  1  1
 16 44  1  0
 20 45  1  0
 20 46  1  0
 22 47  1  0
 23 48  1  0
 24 49  1  0
 25 50  1  0
 26 51  1  0
 27 52  1  0
 27 53  1  0
 28 54  1  0
 28 55  1  0
M  END
$$$$
