
     RDKit          3D

 65 69  0  0  0  0  0  0  0  0999 V2000
   -3.1597    4.9171    0.5827 C   0  0  0  0  0  0  0  0  0  0  0  0
   -2.5430    3.6632    1.0142 C   0  0  0  0  0  0  0  0  0  0  0  0
   -2.0373    2.6280    1.3674 C   0  0  0  0  0  0  0  0  0  0  0  0
   -1.4276    1.3645    1.7908 C   0  0  0  0  0  0  0  0  0  0  0  0
   -1.2501    0.4813    0.6368 N   0  0  0  0  0  0  0  0  0  0  0  0
   -2.0522   -0.5390    0.2270 C   0  0  0  0  0  0  0  0  0  0  0  0
   -3.3176   -0.8663    0.8253 N   0  0  0  0  0  0  0  0  0  0  0  0
   -3.6734   -2.2816    0.9840 C   0  0  0  0  0  0  0  0  0  0  0  0
   -4.7863   -2.4365    2.0235 C   0  0  0  0  0  0  0  0  0  0  0  0
   -6.0345   -1.5970    1.6822 C   0  0  0  0  0  0  0  0  0  0  0  0
   -5.7495   -0.4068    0.7369 C   0  0  1  0  0  0  0  0  0  0  0  0
   -6.7640    0.6330    0.9153 N   0  0  0  0  0  0  0  0  0  0  0  0
   -4.3468    0.1741    0.9814 C   0  0  0  0  0  0  0  0  0  0  0  0
   -1.5544   -1.2275   -0.8306 N   0  0  0  0  0  0  0  0  0  0  0  0
   -0.4020   -0.5825   -1.0904 C   0  0  0  0  0  0  0  0  0  0  0  0
   -0.2148    0.4454   -0.2250 C   0  0  0  0  0  0  0  0  0  0  0  0
    0.9653    1.3107   -0.3177 C   0  0  0  0  0  0  0  0  0  0  0  0
    1.0951    2.3074    0.4424 O   0  0  0  0  0  0  0  0  0  0  0  0
    1.9622    1.0033   -1.3207 N   0  0  0  0  0  0  0  0  0  0  0  0
    3.2206    1.7648   -1.3698 C   0  0  0  0  0  0  0  0  0  0  0  0
    4.2920    1.0540   -0.5853 C   0  0  0  0  0  0  0  0  0  0  0  0
    4.3124    1.1342    0.8155 C   0  0  0  0  0  0  0  0  0  0  0  0
    5.2847    0.4486    1.5497 C   0  0  0  0  0  0  0  0  0  0  0  0
    6.2519   -0.3334    0.8901 C   0  0  0  0  0  0  0  0  0  0  0  0
    7.2468   -1.0408    1.5811 O   0  0  0  0  0  0  0  0  0  0  0  0
    7.3893   -1.0501    2.9978 C   0  0  0  0  0  0  0  0  0  0  0  0
    6.2269   -0.4140   -0.5068 C   0  0  0  0  0  0  0  0  0  0  0  0
    5.2551    0.2714   -1.2411 C   0  0  0  0  0  0  0  0  0  0  0  0
    1.7518   -0.1297   -2.2092 C   0  0  0  0  0  0  0  0  0  0  0  0
    2.6499   -0.4323   -3.1021 N   0  0  0  0  0  0  0  0  0  0  0  0
    2.5409   -1.5869   -3.9914 C   0  0  0  0  0  0  0  0  0  0  0  0
    1.0786   -1.8734   -4.3301 C   0  0  0  0  0  0  0  0  0  0  0  0
    0.2760   -2.0286   -3.0371 C   0  0  0  0  0  0  0  0  0  0  0  0
    0.5250   -0.8993   -2.1336 N   0  0  0  0  0  0  0  0  0  0  0  0
   -4.1997    4.7214    0.2494 H   0  0  0  0  0  0  0  0  0  0  0  0
   -2.5764    5.3459   -0.2579 H   0  0  0  0  0  0  0  0  0  0  0  0
   -3.1712    5.6343    1.4290 H   0  0  0  0  0  0  0  0  0  0  0  0
   -2.0653    0.8792    2.5569 H   0  0  0  0  0  0  0  0  0  0  0  0
   -0.4507    1.5679    2.2751 H   0  0  0  0  0  0  0  0  0  0  0  0
   -2.7855   -2.8584    1.3243 H   0  0  0  0  0  0  0  0  0  0  0  0
   -4.0072   -2.6941    0.0070 H   0  0  0  0  0  0  0  0  0  0  0  0
   -4.3890   -2.1121    3.0107 H   0  0  0  0  0  0  0  0  0  0  0  0
   -5.0668   -3.5084    2.1118 H   0  0  0  0  0  0  0  0  0  0  0  0
   -6.4758   -1.2261    2.6338 H   0  0  0  0  0  0  0  0  0  0  0  0
   -6.7955   -2.2519    1.2039 H   0  0  0  0  0  0  0  0  0  0  0  0
   -5.7895   -0.7743   -0.3150 H   0  0  0  0  0  0  0  0  0  0  0  0
   -6.5981    1.3817    0.2036 H   0  0  0  0  0  0  0  0  0  0  0  0
   -7.6982    0.2212    0.6865 H   0  0  0  0  0  0  0  0  0  0  0  0
   -4.2965    0.5982    2.0064 H   0  0  0  0  0  0  0  0  0  0  0  0
   -4.1706    0.9926    0.2489 H   0  0  0  0  0  0  0  0  0  0  0  0
    3.5377    1.9095   -2.4257 H   0  0  0  0  0  0  0  0  0  0  0  0
    3.0793    2.7896   -0.9635 H   0  0  0  0  0  0  0  0  0  0  0  0
    3.5763    1.7284    1.3413 H   0  0  0  0  0  0  0  0  0  0  0  0
    5.2744    0.5319    2.6278 H   0  0  0  0  0  0  0  0  0  0  0  0
    7.5757   -0.0204    3.3695 H   0  0  0  0  0  0  0  0  0  0  0  0
    8.2543   -1.6884    3.2710 H   0  0  0  0  0  0  0  0  0  0  0  0
    6.4755   -1.4679    3.4707 H   0  0  0  0  0  0  0  0  0  0  0  0
    6.9643   -1.0130   -1.0260 H   0  0  0  0  0  0  0  0  0  0  0  0
    5.2566    0.1911   -2.3208 H   0  0  0  0  0  0  0  0  0  0  0  0
    2.9861   -2.4737   -3.4902 H   0  0  0  0  0  0  0  0  0  0  0  0
    3.1135   -1.3882   -4.9215 H   0  0  0  0  0  0  0  0  0  0  0  0
    0.6645   -1.0308   -4.9263 H   0  0  0  0  0  0  0  0  0  0  0  0
    1.0054   -2.8034   -4.9338 H   0  0  0  0  0  0  0  0  0  0  0  0
   -0.8044   -2.0843   -3.2932 H   0  0  0  0  0  0  0  0  0  0  0  0
    0.5656   -2.9731   -2.5275 H   0  0  0  0  0  0  0  0  0  0  0  0
  1  2  1  0
  2  3  3  0
  3  4  1  0
  4  5  1  0
  5  6  1  0
  6  7  1  0
  7  8  1  0
  8  9  1  0
  9 10  1  0
 10 11  1  0
 11 12  1  0
 11 13  1  0
  6 14  2  0
 14 15  1  0
 15 16  2  0
 16 17  1  0
 17 18  2  0
 17 19  1  0
 19 20  1  0
 20 21  1  0
 21 22  2  0
 22 23  1  0
 23 24  2  0
 24 25  1  0
 25 26  1  0
 24 27  1  0
 27 28  2  0
 19 29  1  0
 29 30  2  0
 30 31  1  0
 31 32  1  0
 32 33  1  0
 33 34  1  0
 16  5  1  0
 28 21  1  0
 34 29  1  0
 13  7  1  0
 34 15  1  0
  1 35  1  0
  1 36  1  0
  1 37  1  0
  4 38  1  0
  4 39  1  0
  8 40  1  0
  8 41  1  0
  9 42  1  0
  9 43  1  0
 10 44  1  0
 10 45  1  0
 11 46  1  6
 12 47  1  0
 12 48  1  0
 13 49  1  0
 13 50  1  0
 20 51  1  0
 20 52  1  0
 22 53  1  0
 23 54  1  0
 26 55  1  0
 26 56  1  0
 26 57  1  0
 27 58  1  0
 28 59  1  0
 31 60  1  0
 31 61  1  0
 32 62  1  0
 32 63  1  0
 33 64  1  0
 33 65  1  0
M  END
$$$$
