
     RDKit          3D

 59 63  0  0  0  0  0  0  0  0999 V2000
   -4.0002   -3.4052    2.6562 C   0  0  0  0  0  0  0  0  0  0  0  0
   -3.7962   -2.2382    1.7498 C   0  0  0  0  0  0  0  0  0  0  0  0
   -2.7880   -2.1115    0.8130 C   0  0  0  0  0  0  0  0  0  0  0  0
   -3.0536   -0.9007    0.2073 C   0  0  0  0  0  0  0  0  0  0  0  0
   -2.1947   -0.2508   -0.7448 N   0  0  0  0  0  0  0  0  0  0  0  0
   -1.7632    1.1351   -0.5407 C   0  0  0  0  0  0  0  0  0  0  0  0
   -0.2366    1.2430   -0.6801 C   0  0  0  0  0  0  0  0  0  0  0  0
    0.3247    0.4370   -1.8008 N   0  0  0  0  0  0  0  0  0  0  0  0
    1.4600   -0.4617   -1.4563 C   0  0  2  0  0  0  0  0  0  0  0  0
    1.1818   -1.4543   -0.3140 C   0  0  0  0  0  0  0  0  0  0  0  0
    2.2395   -1.3026    0.6862 N   0  0  0  0  0  0  0  0  0  0  0  0
    3.3272   -0.5641    0.0444 C   0  0  2  0  0  0  0  0  0  0  0  0
    4.0807    0.2570    1.0637 C   0  0  0  0  0  0  0  0  0  0  0  0
    3.4467    0.7461    2.0394 O   0  0  0  0  0  0  0  0  0  0  0  0
    5.4876    0.5393    0.9209 N   0  0  0  0  0  0  0  0  0  0  0  0
    6.2731    0.1153   -0.2306 C   0  0  0  0  0  0  0  0  0  0  0  0
    7.6105    0.8342   -0.1766 C   0  0  0  0  0  0  0  0  0  0  0  0
    7.9868    1.1948    1.5603 S   0  0  0  0  0  0  0  0  0  0  0  0
    6.2161    1.2629    1.9537 C   0  0  0  0  0  0  0  0  0  0  0  0
    2.6935    0.3178   -1.0213 C   0  0  0  0  0  0  0  0  0  0  0  0
   -0.6781   -0.1846   -2.6946 C   0  0  0  0  0  0  0  0  0  0  0  0
   -1.7174   -0.9963   -1.9128 C   0  0  0  0  0  0  0  0  0  0  0  0
   -4.1688   -0.3624    0.7518 N   0  0  0  0  0  0  0  0  0  0  0  0
   -4.8481    0.8435    0.3662 C   0  0  0  0  0  0  0  0  0  0  0  0
   -4.9920    1.1890   -0.9866 C   0  0  0  0  0  0  0  0  0  0  0  0
   -5.6743    2.3584   -1.3299 C   0  0  0  0  0  0  0  0  0  0  0  0
   -6.2080    3.1466   -0.3594 N   0  0  0  0  0  0  0  0  0  0  0  0
   -6.1000    2.8266    0.9574 C   0  0  0  0  0  0  0  0  0  0  0  0
   -5.4252    1.6660    1.3436 C   0  0  0  0  0  0  0  0  0  0  0  0
   -4.6274   -1.1783    1.6890 N   0  0  0  0  0  0  0  0  0  0  0  0
   -4.5913   -3.0975    3.5442 H   0  0  0  0  0  0  0  0  0  0  0  0
   -4.5464   -4.2041    2.1132 H   0  0  0  0  0  0  0  0  0  0  0  0
   -3.0192   -3.7982    2.9970 H   0  0  0  0  0  0  0  0  0  0  0  0
   -1.9614   -2.7856    0.6310 H   0  0  0  0  0  0  0  0  0  0  0  0
   -2.0639    1.5030    0.4648 H   0  0  0  0  0  0  0  0  0  0  0  0
   -2.2470    1.7842   -1.3018 H   0  0  0  0  0  0  0  0  0  0  0  0
    0.2230    0.9746    0.2951 H   0  0  0  0  0  0  0  0  0  0  0  0
    0.0211    2.3090   -0.8551 H   0  0  0  0  0  0  0  0  0  0  0  0
    1.7599   -1.0481   -2.3554 H   0  0  0  0  0  0  0  0  0  0  0  0
    0.2044   -1.2876    0.1785 H   0  0  0  0  0  0  0  0  0  0  0  0
    1.1761   -2.4931   -0.7166 H   0  0  0  0  0  0  0  0  0  0  0  0
    2.5866   -2.2486    0.9726 H   0  0  0  0  0  0  0  0  0  0  0  0
    4.0123   -1.2907   -0.4490 H   0  0  0  0  0  0  0  0  0  0  0  0
    5.7537    0.3772   -1.1768 H   0  0  0  0  0  0  0  0  0  0  0  0
    6.4309   -0.9839   -0.1837 H   0  0  0  0  0  0  0  0  0  0  0  0
    7.5442    1.7962   -0.7288 H   0  0  0  0  0  0  0  0  0  0  0  0
    8.4136    0.2113   -0.6238 H   0  0  0  0  0  0  0  0  0  0  0  0
    5.8793    2.3207    1.9814 H   0  0  0  0  0  0  0  0  0  0  0  0
    6.0509    0.7882    2.9440 H   0  0  0  0  0  0  0  0  0  0  0  0
    3.3875    0.4803   -1.8747 H   0  0  0  0  0  0  0  0  0  0  0  0
    2.4206    1.3094   -0.5993 H   0  0  0  0  0  0  0  0  0  0  0  0
   -0.1948   -0.8314   -3.4587 H   0  0  0  0  0  0  0  0  0  0  0  0
   -1.1989    0.6202   -3.2578 H   0  0  0  0  0  0  0  0  0  0  0  0
   -2.5772   -1.2306   -2.5765 H   0  0  0  0  0  0  0  0  0  0  0  0
   -1.2636   -1.9575   -1.5942 H   0  0  0  0  0  0  0  0  0  0  0  0
   -4.5908    0.5556   -1.7671 H   0  0  0  0  0  0  0  0  0  0  0  0
   -5.7850    2.6361   -2.3695 H   0  0  0  0  0  0  0  0  0  0  0  0
   -6.5393    3.4728    1.7055 H   0  0  0  0  0  0  0  0  0  0  0  0
   -5.3416    1.4163    2.3938 H   0  0  0  0  0  0  0  0  0  0  0  0
  1  2  1  0
  2  3  1  0
  3  4  2  0
  4  5  1  0
  5  6  1  0
  6  7  1  0
  7  8  1  0
  8  9  1  0
  9 10  1  0
 10 11  1  0
 11 12  1  0
 12 13  1  0
 13 14  2  0
 13 15  1  0
 15 16  1  0
 16 17  1  0
 17 18  1  0
 18 19  1  0
 12 20  1  0
  8 21  1  0
 21 22  1  0
  4 23  1  0
 23 24  1  0
 24 25  2  0
 25 26  1  0
 26 27  2  0
 27 28  1  0
 28 29  2  0
 23 30  1  0
 30  2  2  0
 22  5  1  0
 29 24  1  0
 20  9  1  0
 19 15  1  0
  1 31  1  0
  1 32  1  0
  1 33  1  0
  3 34  1  0
  6 35  1  0
  6 36  1  0
  7 37  1  0
  7 38  1  0
  9 39  1  6
 10 40  1  0
 10 41  1  0
 11 42  1  0
 12 43  1  6
 16 44  1  0
 16 45  1  0
 17 46  1  0
 17 47  1  0
 19 48  1  0
 19 49  1  0
 20 50  1  0
 20 51  1  0
 21 52  1  0
 21 53  1  0
 22 54  1  0
 22 55  1  0
 25 56  1  0
 26 57  1  0
 28 58  1  0
 29 59  1  0
M  END
$$$$
