
     RDKit          3D

 61 65  0  0  0  0  0  0  0  0999 V2000
   -4.7001    4.2520    2.5373 C   0  0  0  0  0  0  0  0  0  0  0  0
   -3.7871    3.5875    1.6080 C   0  0  0  0  0  0  0  0  0  0  0  0
   -3.0367    3.0362    0.8430 C   0  0  0  0  0  0  0  0  0  0  0  0
   -2.1277    2.3562   -0.0861 C   0  0  0  0  0  0  0  0  0  0  0  0
   -1.5533    1.1561    0.5532 N   0  0  0  0  0  0  0  0  0  0  0  0
   -2.1371   -0.0750    0.3834 C   0  0  0  0  0  0  0  0  0  0  0  0
   -3.3290   -0.2417   -0.4014 N   0  0  0  0  0  0  0  0  0  0  0  0
   -4.6252    0.1534    0.1609 C   0  0  0  0  0  0  0  0  0  0  0  0
   -5.7082   -0.9158   -0.0753 C   0  0  0  0  0  0  0  0  0  0  0  0
   -5.3891   -1.8957   -1.2186 C   0  0  0  0  0  0  0  0  0  0  0  0
   -4.5378   -1.2700   -2.3387 C   0  0  1  0  0  0  0  0  0  0  0  0
   -5.2613   -0.2244   -3.0702 N   0  0  0  0  0  0  0  0  0  0  0  0
   -3.2037   -0.7394   -1.7788 C   0  0  0  0  0  0  0  0  0  0  0  0
   -1.5765   -1.1998    0.9791 C   0  0  0  0  0  0  0  0  0  0  0  0
   -0.4398   -1.0594    1.7625 C   0  0  0  0  0  0  0  0  0  0  0  0
    0.0686   -2.0883    2.2871 O   0  0  0  0  0  0  0  0  0  0  0  0
    0.1138    0.1777    1.9607 N   0  0  0  0  0  0  0  0  0  0  0  0
    1.3353    0.3153    2.7794 C   0  0  0  0  0  0  0  0  0  0  0  0
    2.5546    0.1323    1.9228 C   0  0  0  0  0  0  0  0  0  0  0  0
    3.2046    1.2305    1.3544 C   0  0  0  0  0  0  0  0  0  0  0  0
    4.3106    1.0285    0.5284 C   0  0  0  0  0  0  0  0  0  0  0  0
    4.7751   -0.2779    0.2543 C   0  0  0  0  0  0  0  0  0  0  0  0
    4.0707   -1.3574    0.8493 C   0  0  0  0  0  0  0  0  0  0  0  0
    4.4652   -2.6750    0.6201 C   0  0  0  0  0  0  0  0  0  0  0  0
    5.5574   -2.9526   -0.1943 C   0  0  0  0  0  0  0  0  0  0  0  0
    6.2774   -1.9135   -0.7963 C   0  0  0  0  0  0  0  0  0  0  0  0
    7.3769   -2.2205   -1.6140 C   0  0  0  0  0  0  0  0  0  0  0  0
    8.1082   -1.2031   -2.2231 C   0  0  0  0  0  0  0  0  0  0  0  0
    7.7517    0.1281   -2.0234 C   0  0  0  0  0  0  0  0  0  0  0  0
    6.6611    0.4546   -1.2136 C   0  0  0  0  0  0  0  0  0  0  0  0
    5.8982   -0.5573   -0.5817 C   0  0  0  0  0  0  0  0  0  0  0  0
    2.9970   -1.1219    1.6496 N   0  0  0  0  0  0  0  0  0  0  0  0
   -0.4396    1.2789    1.3516 C   0  0  0  0  0  0  0  0  0  0  0  0
    0.0798    2.4178    1.5279 O   0  0  0  0  0  0  0  0  0  0  0  0
   -5.0214    5.2237    2.1091 H   0  0  0  0  0  0  0  0  0  0  0  0
   -5.5890    3.6094    2.7043 H   0  0  0  0  0  0  0  0  0  0  0  0
   -4.1828    4.4260    3.5031 H   0  0  0  0  0  0  0  0  0  0  0  0
   -2.6777    2.1028   -1.0153 H   0  0  0  0  0  0  0  0  0  0  0  0
   -1.3273    3.0628   -0.3934 H   0  0  0  0  0  0  0  0  0  0  0  0
   -4.5340    0.3399    1.2542 H   0  0  0  0  0  0  0  0  0  0  0  0
   -4.9395    1.1128   -0.3009 H   0  0  0  0  0  0  0  0  0  0  0  0
   -5.8558   -1.5014    0.8584 H   0  0  0  0  0  0  0  0  0  0  0  0
   -6.6722   -0.4050   -0.2904 H   0  0  0  0  0  0  0  0  0  0  0  0
   -4.8292   -2.7608   -0.7986 H   0  0  0  0  0  0  0  0  0  0  0  0
   -6.3363   -2.2963   -1.6407 H   0  0  0  0  0  0  0  0  0  0  0  0
   -4.2968   -2.0764   -3.0675 H   0  0  0  0  0  0  0  0  0  0  0  0
   -6.1181   -0.6466   -3.4964 H   0  0  0  0  0  0  0  0  0  0  0  0
   -5.5781    0.5281   -2.4207 H   0  0  0  0  0  0  0  0  0  0  0  0
   -2.4723   -1.5778   -1.7892 H   0  0  0  0  0  0  0  0  0  0  0  0
   -2.7949    0.0610   -2.4323 H   0  0  0  0  0  0  0  0  0  0  0  0
   -2.0273   -2.1752    0.8361 H   0  0  0  0  0  0  0  0  0  0  0  0
    1.3641    1.3018    3.2925 H   0  0  0  0  0  0  0  0  0  0  0  0
    1.3461   -0.4339    3.6012 H   0  0  0  0  0  0  0  0  0  0  0  0
    2.8588    2.2381    1.5486 H   0  0  0  0  0  0  0  0  0  0  0  0
    4.7756    1.9098    0.1184 H   0  0  0  0  0  0  0  0  0  0  0  0
    3.9210   -3.4930    1.0766 H   0  0  0  0  0  0  0  0  0  0  0  0
    5.8411   -3.9863   -0.3544 H   0  0  0  0  0  0  0  0  0  0  0  0
    7.6710   -3.2500   -1.7821 H   0  0  0  0  0  0  0  0  0  0  0  0
    8.9546   -1.4474   -2.8521 H   0  0  0  0  0  0  0  0  0  0  0  0
    8.3244    0.9140   -2.4991 H   0  0  0  0  0  0  0  0  0  0  0  0
    6.4416    1.5034   -1.1013 H   0  0  0  0  0  0  0  0  0  0  0  0
  1  2  1  0
  2  3  3  0
  3  4  1  0
  4  5  1  0
  5  6  1  0
  6  7  1  0
  7  8  1  0
  8  9  1  0
  9 10  1  0
 10 11  1  0
 11 12  1  0
 11 13  1  0
  6 14  2  0
 14 15  1  0
 15 16  2  0
 15 17  1  0
 17 18  1  0
 18 19  1  0
 19 20  2  0
 20 21  1  0
 21 22  2  0
 22 23  1  0
 23 24  1  0
 24 25  2  0
 25 26  1  0
 26 27  2  0
 27 28  1  0
 28 29  2  0
 29 30  1  0
 30 31  2  0
 23 32  2  0
 17 33  1  0
 33 34  2  0
 33  5  1  0
 13  7  1  0
 32 19  1  0
 31 22  1  0
 31 26  1  0
  1 35  1  0
  1 36  1  0
  1 37  1  0
  4 38  1  0
  4 39  1  0
  8 40  1  0
  8 41  1  0
  9 42  1  0
  9 43  1  0
 10 44  1  0
 10 45  1  0
 11 46  1  6
 12 47  1  0
 12 48  1  0
 13 49  1  0
 13 50  1  0
 14 51  1  0
 18 52  1  0
 18 53  1  0
 20 54  1  0
 21 55  1  0
 24 56  1  0
 25 57  1  0
 27 58  1  0
 28 59  1  0
 29 60  1  0
 30 61  1  0
M  END
$$$$
