
     RDKit          3D

 49 52  0  0  0  0  0  0  0  0999 V2000
    5.6391    0.6149    2.0254 N   0  0  0  0  0  0  0  0  0  0  0  0
    5.2701    0.3564    0.9595 C   0  0  0  0  0  0  0  0  0  0  0  0
    4.7997    0.0270   -0.3961 C   0  0  2  0  0  0  0  0  0  0  0  0
    4.7839    1.2659   -1.2909 C   0  0  0  0  0  0  0  0  0  0  0  0
    3.3328    1.7376   -1.3170 C   0  0  0  0  0  0  0  0  0  0  0  0
    2.4947    0.5206   -0.9473 C   0  0  0  0  0  0  0  0  0  0  0  0
    3.4179   -0.4277   -0.3440 N   0  0  0  0  0  0  0  0  0  0  0  0
    3.0324   -1.7198    0.1643 C   0  0  0  0  0  0  0  0  0  0  0  0
    3.9068   -2.4801    0.6618 O   0  0  0  0  0  0  0  0  0  0  0  0
    1.6021   -2.1839    0.1378 C   0  0  0  0  0  0  0  0  0  0  0  0
    0.7993   -1.4102    1.0923 N   0  0  0  0  0  0  0  0  0  0  0  0
   -0.5993   -1.8799    1.1437 C   0  0  0  0  0  0  0  0  0  0  0  0
   -1.5822   -0.7832    0.6640 C   0  0  0  0  0  0  0  0  0  0  0  0
   -3.0426   -1.2774    0.8741 C   0  0  0  0  0  0  0  0  0  0  0  0
   -4.0453   -0.2017    0.4019 C   0  0  1  0  0  0  0  0  0  0  0  0
   -3.8287    1.0940    1.2128 C   0  0  0  0  0  0  0  0  0  0  0  0
   -2.3879    1.6040    0.9964 C   0  0  1  0  0  0  0  0  0  0  0  0
   -1.3844    0.5311    1.4734 C   0  0  0  0  0  0  0  0  0  0  0  0
   -2.1614    1.8886   -0.5047 C   0  0  0  0  0  0  0  0  0  0  0  0
   -2.3811    0.5936   -1.3170 C   0  0  1  0  0  0  0  0  0  0  0  0
   -1.3790   -0.4838   -0.8482 C   0  0  0  0  0  0  0  0  0  0  0  0
   -3.8221    0.0857   -1.0981 C   0  0  0  0  0  0  0  0  0  0  0  0
    5.4521   -0.7577   -0.8376 H   0  0  0  0  0  0  0  0  0  0  0  0
    5.0873    0.9749   -2.3209 H   0  0  0  0  0  0  0  0  0  0  0  0
    5.4665    2.0717   -0.9392 H   0  0  0  0  0  0  0  0  0  0  0  0
    3.1903    2.5349   -0.5545 H   0  0  0  0  0  0  0  0  0  0  0  0
    3.0535    2.1347   -2.3171 H   0  0  0  0  0  0  0  0  0  0  0  0
    2.0405    0.0750   -1.8585 H   0  0  0  0  0  0  0  0  0  0  0  0
    1.7055    0.8079   -0.2213 H   0  0  0  0  0  0  0  0  0  0  0  0
    1.1995   -2.0607   -0.8900 H   0  0  0  0  0  0  0  0  0  0  0  0
    1.5642   -3.2673    0.3947 H   0  0  0  0  0  0  0  0  0  0  0  0
    1.2217   -1.5309    2.0437 H   0  0  0  0  0  0  0  0  0  0  0  0
   -0.8559   -2.1550    2.1928 H   0  0  0  0  0  0  0  0  0  0  0  0
   -0.7568   -2.8037    0.5395 H   0  0  0  0  0  0  0  0  0  0  0  0
   -3.2163   -2.2191    0.3071 H   0  0  0  0  0  0  0  0  0  0  0  0
   -3.2237   -1.5024    1.9488 H   0  0  0  0  0  0  0  0  0  0  0  0
   -5.0833   -0.5677    0.5586 H   0  0  0  0  0  0  0  0  0  0  0  0
   -4.5584    1.8695    0.8916 H   0  0  0  0  0  0  0  0  0  0  0  0
   -4.0053    0.9002    2.2937 H   0  0  0  0  0  0  0  0  0  0  0  0
   -2.2349    2.5391    1.5779 H   0  0  0  0  0  0  0  0  0  0  0  0
   -0.3510    0.9204    1.3436 H   0  0  0  0  0  0  0  0  0  0  0  0
   -1.5309    0.3394    2.5596 H   0  0  0  0  0  0  0  0  0  0  0  0
   -1.1289    2.2691   -0.6681 H   0  0  0  0  0  0  0  0  0  0  0  0
   -2.8642    2.6779   -0.8515 H   0  0  0  0  0  0  0  0  0  0  0  0
   -2.2222    0.8025   -2.3973 H   0  0  0  0  0  0  0  0  0  0  0  0
   -1.5199   -1.4105   -1.4477 H   0  0  0  0  0  0  0  0  0  0  0  0
   -0.3486   -0.1225   -1.0391 H   0  0  0  0  0  0  0  0  0  0  0  0
   -4.5513    0.8474   -1.4518 H   0  0  0  0  0  0  0  0  0  0  0  0
   -3.9940   -0.8387   -1.6922 H   0  0  0  0  0  0  0  0  0  0  0  0
  1  2  3  0
  2  3  1  0
  3  4  1  0
  4  5  1  0
  5  6  1  0
  6  7  1  0
  7  8  1  0
  8  9  2  0
  8 10  1  0
 10 11  1  0
 11 12  1  0
 12 13  1  0
 13 14  1  0
 14 15  1  0
 15 16  1  0
 16 17  1  0
 17 18  1  0
 17 19  1  0
 19 20  1  0
 20 21  1  0
 20 22  1  0
  7  3  1  0
 18 13  1  0
 21 13  1  0
 22 15  1  0
  3 23  1  6
  4 24  1  0
  4 25  1  0
  5 26  1  0
  5 27  1  0
  6 28  1  0
  6 29  1  0
 10 30  1  0
 10 31  1  0
 11 32  1  0
 12 33  1  0
 12 34  1  0
 14 35  1  0
 14 36  1  0
 15 37  1  6
 16 38  1  0
 16 39  1  0
 17 40  1  1
 18 41  1  0
 18 42  1  0
 19 43  1  0
 19 44  1  0
 20 45  1  6
 21 46  1  0
 21 47  1  0
 22 48  1  0
 22 49  1  0
M  END
$$$$
