
     RDKit          3D

 59 60  0  0  0  0  0  0  0  0999 V2000
    2.6744   -2.1214    2.1984 C   0  0  0  0  0  0  0  0  0  0  0  0
    2.2251   -0.9758    1.2752 C   0  0  1  0  0  0  0  0  0  0  0  0
    0.7422   -1.0487    0.9291 C   0  0  0  0  0  0  0  0  0  0  0  0
    0.3294   -0.7865   -0.3891 C   0  0  0  0  0  0  0  0  0  0  0  0
   -1.0239   -0.8194   -0.7337 C   0  0  0  0  0  0  0  0  0  0  0  0
   -2.0000   -1.1121    0.2335 C   0  0  0  0  0  0  0  0  0  0  0  0
   -3.4394   -1.1448   -0.1314 C   0  0  0  0  0  0  0  0  0  0  0  0
   -4.2818   -2.1447    0.3833 C   0  0  0  0  0  0  0  0  0  0  0  0
   -5.6347   -2.1728    0.0424 C   0  0  0  0  0  0  0  0  0  0  0  0
   -6.1647   -1.2094   -0.8179 C   0  0  0  0  0  0  0  0  0  0  0  0
   -5.3414   -0.2038   -1.3543 C   0  0  0  0  0  0  0  0  0  0  0  0
   -5.8904    0.8338   -2.2619 C   0  0  0  0  0  0  0  0  0  0  0  0
   -7.0821    0.6092   -3.0202 N   0  0  0  0  0  0  0  0  0  0  0  0
   -5.2913    1.9363   -2.3837 O   0  0  0  0  0  0  0  0  0  0  0  0
   -3.9803   -0.1755   -0.9967 C   0  0  0  0  0  0  0  0  0  0  0  0
   -1.5917   -1.3687    1.5531 C   0  0  0  0  0  0  0  0  0  0  0  0
   -0.2381   -1.3341    1.8985 C   0  0  0  0  0  0  0  0  0  0  0  0
    2.6736    0.4232    1.7980 C   0  0  2  0  0  0  0  0  0  0  0  0
    2.0079    0.8206    3.0449 N   0  0  0  0  0  0  0  0  0  0  0  0
    2.4663    1.4853    0.7379 C   0  0  0  0  0  0  0  0  0  0  0  0
    1.3869    2.1392    0.7247 O   0  0  0  0  0  0  0  0  0  0  0  0
    3.4348    1.7093   -0.3039 N   0  0  0  0  0  0  0  0  0  0  0  0
    3.1511    2.5279   -1.4701 C   0  0  0  0  0  0  0  0  0  0  0  0
    4.3433    2.3474   -2.3997 C   0  0  0  0  0  0  0  0  0  0  0  0
    5.4639    1.7823   -1.5301 C   0  0  2  0  0  0  0  0  0  0  0  0
    6.2061    0.8421   -2.2251 F   0  0  0  0  0  0  0  0  0  0  0  0
    4.7793    1.1558   -0.3211 C   0  0  0  0  0  0  0  0  0  0  0  0
    0.8243    0.8979   -1.2135 O   0  0  0  0  0  0  0  0  0  0  0  0
    0.4825    0.1447   -0.2628 C   0  0  0  0  0  0  0  0  0  0  0  0
    1.4551   -0.5092    0.4877 O   0  0  0  0  0  0  0  0  0  0  0  0
   -0.9611    0.0007    0.0953 C   0  0  0  0  0  0  0  0  0  0  0  0
   -1.1630   -1.1850    0.7779 F   0  0  0  0  0  0  0  0  0  0  0  0
   -1.7346   -0.0028   -1.0513 F   0  0  0  0  0  0  0  0  0  0  0  0
   -1.3417    1.0586    0.8991 F   0  0  0  0  0  0  0  0  0  0  0  0
    2.3805   -3.0986    1.7588 H   0  0  0  0  0  0  0  0  0  0  0  0
    2.2313   -2.0445    3.2109 H   0  0  0  0  0  0  0  0  0  0  0  0
    3.7804   -2.1114    2.3029 H   0  0  0  0  0  0  0  0  0  0  0  0
    2.7895   -1.1537    0.3323 H   0  0  0  0  0  0  0  0  0  0  0  0
    1.0582   -0.5522   -1.1555 H   0  0  0  0  0  0  0  0  0  0  0  0
   -1.3054   -0.6299   -1.7619 H   0  0  0  0  0  0  0  0  0  0  0  0
   -3.8915   -2.9125    1.0394 H   0  0  0  0  0  0  0  0  0  0  0  0
   -6.2766   -2.9436    0.4493 H   0  0  0  0  0  0  0  0  0  0  0  0
   -7.2228   -1.2436   -1.0384 H   0  0  0  0  0  0  0  0  0  0  0  0
   -7.4783    1.3777   -3.6057 H   0  0  0  0  0  0  0  0  0  0  0  0
   -7.5271   -0.3324   -3.0795 H   0  0  0  0  0  0  0  0  0  0  0  0
   -3.3413    0.6075   -1.3868 H   0  0  0  0  0  0  0  0  0  0  0  0
   -2.3222   -1.5745    2.3254 H   0  0  0  0  0  0  0  0  0  0  0  0
    0.0344   -1.5165    2.9286 H   0  0  0  0  0  0  0  0  0  0  0  0
    3.7609    0.3700    2.0175 H   0  0  0  0  0  0  0  0  0  0  0  0
    2.2592    0.1539    3.8086 H   0  0  0  0  0  0  0  0  0  0  0  0
    0.9702    0.8131    2.9295 H   0  0  0  0  0  0  0  0  0  0  0  0
    2.2157    2.1871   -1.9654 H   0  0  0  0  0  0  0  0  0  0  0  0
    3.0517    3.5917   -1.1634 H   0  0  0  0  0  0  0  0  0  0  0  0
    4.6412    3.3107   -2.8676 H   0  0  0  0  0  0  0  0  0  0  0  0
    4.0821    1.6188   -3.1988 H   0  0  0  0  0  0  0  0  0  0  0  0
    6.1308    2.6087   -1.1987 H   0  0  0  0  0  0  0  0  0  0  0  0
    5.3242    1.4281    0.6085 H   0  0  0  0  0  0  0  0  0  0  0  0
    4.7302    0.0510   -0.4253 H   0  0  0  0  0  0  0  0  0  0  0  0
    2.4385   -0.4050    0.2676 H   0  0  0  0  0  0  0  0  0  0  0  0
  1  2  1  0
  2  3  1  0
  3  4  2  0
  4  5  1  0
  5  6  2  0
  6  7  1  0
  7  8  2  0
  8  9  1  0
  9 10  2  0
 10 11  1  0
 11 12  1  0
 12 13  1  0
 12 14  2  0
 11 15  2  0
  6 16  1  0
 16 17  2  0
  2 18  1  0
 18 19  1  0
 18 20  1  0
 20 21  2  0
 20 22  1  0
 22 23  1  0
 23 24  1  0
 24 25  1  0
 25 26  1  0
 25 27  1  0
 28 29  2  0
 29 30  1  0
 29 31  1  0
 31 32  1  0
 31 33  1  0
 31 34  1  0
 17  3  1  0
 27 22  1  0
 15  7  1  0
  1 35  1  0
  1 36  1  0
  1 37  1  0
  2 38  1  6
  4 39  1  0
  5 40  1  0
  8 41  1  0
  9 42  1  0
 10 43  1  0
 13 44  1  0
 13 45  1  0
 15 46  1  0
 16 47  1  0
 17 48  1  0
 18 49  1  1
 19 50  1  0
 19 51  1  0
 23 52  1  0
 23 53  1  0
 24 54  1  0
 24 55  1  0
 25 56  1  1
 27 57  1  0
 27 58  1  0
 30 59  1  0
M  END
$$$$
