
     RDKit          3D

 45 47  0  0  0  0  0  0  0  0999 V2000
    1.4786    1.4256    0.5436 O   0  0  0  0  0  0  0  0  0  0  0  0
    1.4644    0.1973    0.8328 C   0  0  0  0  0  0  0  0  0  0  0  0
    2.3698   -0.3192    1.8191 N   0  0  0  0  0  0  0  0  0  0  0  0
    3.3811    0.5135    2.4657 C   0  0  0  0  0  0  0  0  0  0  0  0
    4.4873    0.8341    1.4978 C   0  0  0  0  0  0  0  0  0  0  0  0
    4.6245    2.1292    0.9704 C   0  0  0  0  0  0  0  0  0  0  0  0
    5.6413    2.4113    0.0527 C   0  0  0  0  0  0  0  0  0  0  0  0
    6.5239    1.4040   -0.3470 C   0  0  0  0  0  0  0  0  0  0  0  0
    6.3904    0.1122    0.1693 C   0  0  0  0  0  0  0  0  0  0  0  0
    5.3749   -0.1742    1.0870 C   0  0  0  0  0  0  0  0  0  0  0  0
    0.5029   -0.7290    0.1306 C   0  0  2  0  0  0  0  0  0  0  0  0
    0.7259   -0.7822   -1.3746 C   0  0  0  0  0  0  0  0  0  0  0  0
   -0.5691   -1.0439   -2.0080 N   0  0  0  0  0  0  0  0  0  0  0  0
   -1.6031   -0.8958   -0.9737 C   0  0  2  0  0  0  0  0  0  0  0  0
   -2.7253   -0.0190   -1.4739 C   0  0  0  0  0  0  0  0  0  0  0  0
   -2.4636    0.9038   -2.2937 O   0  0  0  0  0  0  0  0  0  0  0  0
   -4.0726   -0.1739   -0.9912 N   0  0  0  0  0  0  0  0  0  0  0  0
   -4.4843   -1.1427    0.0110 C   0  0  0  0  0  0  0  0  0  0  0  0
   -5.9354   -0.8101    0.3318 C   0  0  0  0  0  0  0  0  0  0  0  0
   -6.4246    0.0732   -0.8126 C   0  0  0  0  0  0  0  0  0  0  0  0
   -5.1721    0.6545   -1.4547 C   0  0  0  0  0  0  0  0  0  0  0  0
   -0.9414   -0.2984    0.2645 C   0  0  0  0  0  0  0  0  0  0  0  0
    2.3153   -1.3280    2.0858 H   0  0  0  0  0  0  0  0  0  0  0  0
    2.9084    1.4367    2.8664 H   0  0  0  0  0  0  0  0  0  0  0  0
    3.8097   -0.0354    3.3324 H   0  0  0  0  0  0  0  0  0  0  0  0
    3.9449    2.9186    1.2664 H   0  0  0  0  0  0  0  0  0  0  0  0
    5.7437    3.4106   -0.3503 H   0  0  0  0  0  0  0  0  0  0  0  0
    7.3097    1.6240   -1.0580 H   0  0  0  0  0  0  0  0  0  0  0  0
    7.0723   -0.6680   -0.1433 H   0  0  0  0  0  0  0  0  0  0  0  0
    5.2775   -1.1804    1.4759 H   0  0  0  0  0  0  0  0  0  0  0  0
    0.6012   -1.7608    0.5379 H   0  0  0  0  0  0  0  0  0  0  0  0
    1.1077    0.1893   -1.7579 H   0  0  0  0  0  0  0  0  0  0  0  0
    1.4673   -1.5720   -1.6321 H   0  0  0  0  0  0  0  0  0  0  0  0
   -0.5791   -2.0318   -2.3570 H   0  0  0  0  0  0  0  0  0  0  0  0
   -2.0020   -1.9024   -0.7120 H   0  0  0  0  0  0  0  0  0  0  0  0
   -3.8573   -1.0527    0.9238 H   0  0  0  0  0  0  0  0  0  0  0  0
   -4.4068   -2.1695   -0.4074 H   0  0  0  0  0  0  0  0  0  0  0  0
   -5.9854   -0.2404    1.2860 H   0  0  0  0  0  0  0  0  0  0  0  0
   -6.5516   -1.7308    0.4242 H   0  0  0  0  0  0  0  0  0  0  0  0
   -6.9689   -0.5510   -1.5551 H   0  0  0  0  0  0  0  0  0  0  0  0
   -7.1007    0.8751   -0.4443 H   0  0  0  0  0  0  0  0  0  0  0  0
   -5.2477    0.6155   -2.5632 H   0  0  0  0  0  0  0  0  0  0  0  0
   -5.0140    1.7034   -1.1223 H   0  0  0  0  0  0  0  0  0  0  0  0
   -1.0244    0.8126    0.2562 H   0  0  0  0  0  0  0  0  0  0  0  0
   -1.3932   -0.6918    1.2011 H   0  0  0  0  0  0  0  0  0  0  0  0
  1  2  2  0
  2  3  1  0
  3  4  1  0
  4  5  1  0
  5  6  2  0
  6  7  1  0
  7  8  2  0
  8  9  1  0
  9 10  2  0
  2 11  1  0
 11 12  1  0
 12 13  1  0
 13 14  1  0
 14 15  1  0
 15 16  2  0
 15 17  1  0
 17 18  1  0
 18 19  1  0
 19 20  1  0
 20 21  1  0
 14 22  1  0
 10  5  1  0
 22 11  1  0
 21 17  1  0
  3 23  1  0
  4 24  1  0
  4 25  1  0
  6 26  1  0
  7 27  1  0
  8 28  1  0
  9 29  1  0
 10 30  1  0
 11 31  1  1
 12 32  1  0
 12 33  1  0
 13 34  1  0
 14 35  1  1
 18 36  1  0
 18 37  1  0
 19 38  1  0
 19 39  1  0
 20 40  1  0
 20 41  1  0
 21 42  1  0
 21 43  1  0
 22 44  1  0
 22 45  1  0
M  END
$$$$
