
     RDKit          3D

 53 54  0  0  0  0  0  0  0  0999 V2000
   -0.3589   -1.0704    2.0024 C   0  0  0  0  0  0  0  0  0  0  0  0
   -0.4112   -0.9546    0.4601 C   0  0  0  0  0  0  0  0  0  0  0  0
    0.5485   -2.0169   -0.1258 C   0  0  0  0  0  0  0  0  0  0  0  0
    0.0222    0.4713   -0.0053 C   0  0  0  0  0  0  0  0  0  0  0  0
    1.4487    0.8120    0.3346 C   0  0  0  0  0  0  0  0  0  0  0  0
    1.7187    1.2979    1.4667 O   0  0  0  0  0  0  0  0  0  0  0  0
    2.4962    0.5656   -0.6127 N   0  0  0  0  0  0  0  0  0  0  0  0
    3.8974    0.8212   -0.2821 C   0  0  0  0  0  0  0  0  0  0  0  0
    4.8112    0.4431   -1.4508 C   0  0  0  0  0  0  0  0  0  0  0  0
    6.2473    0.7107   -1.1066 C   0  0  0  0  0  0  0  0  0  0  0  0
    7.0115   -0.2483   -0.4250 C   0  0  0  0  0  0  0  0  0  0  0  0
    8.3353    0.0436   -0.0899 C   0  0  0  0  0  0  0  0  0  0  0  0
    8.8802    1.2838   -0.4271 C   0  0  0  0  0  0  0  0  0  0  0  0
    8.0870    2.2193   -1.0951 C   0  0  0  0  0  0  0  0  0  0  0  0
    6.7996    1.9175   -1.4135 N   0  0  0  0  0  0  0  0  0  0  0  0
   -1.7754   -1.2844   -0.0282 N   0  0  0  0  0  0  0  0  0  0  0  0
   -2.8325   -0.3257    0.3404 C   0  0  0  0  0  0  0  0  0  0  0  0
   -4.1958   -0.9155    0.0935 C   0  0  0  0  0  0  0  0  0  0  0  0
   -4.3060   -2.1415   -0.1845 O   0  0  0  0  0  0  0  0  0  0  0  0
   -5.3803   -0.1039    0.2065 N   0  0  0  0  0  0  0  0  0  0  0  0
   -5.3715    1.2848    0.6401 C   0  0  0  0  0  0  0  0  0  0  0  0
   -6.8256    1.7376    0.6047 C   0  0  0  0  0  0  0  0  0  0  0  0
   -7.6582    0.4589    0.5626 C   0  0  0  0  0  0  0  0  0  0  0  0
   -6.7265   -0.6249    0.0199 C   0  0  1  0  0  0  0  0  0  0  0  0
   -6.9734   -0.8728   -1.4099 C   0  0  0  0  0  0  0  0  0  0  0  0
   -7.1668   -1.0678   -2.5341 N   0  0  0  0  0  0  0  0  0  0  0  0
   -0.8669   -2.0006    2.3362 H   0  0  0  0  0  0  0  0  0  0  0  0
    0.6908   -1.1026    2.3655 H   0  0  0  0  0  0  0  0  0  0  0  0
   -0.8438   -0.2027    2.4951 H   0  0  0  0  0  0  0  0  0  0  0  0
    0.1878   -3.0383    0.1233 H   0  0  0  0  0  0  0  0  0  0  0  0
    0.6000   -1.9288   -1.2324 H   0  0  0  0  0  0  0  0  0  0  0  0
    1.5770   -1.9113    0.2807 H   0  0  0  0  0  0  0  0  0  0  0  0
   -0.6262    1.2409    0.4655 H   0  0  0  0  0  0  0  0  0  0  0  0
   -0.1194    0.5621   -1.1042 H   0  0  0  0  0  0  0  0  0  0  0  0
    2.2439    0.1767   -1.5500 H   0  0  0  0  0  0  0  0  0  0  0  0
    4.1751    0.2225    0.6131 H   0  0  0  0  0  0  0  0  0  0  0  0
    4.0255    1.9002   -0.0452 H   0  0  0  0  0  0  0  0  0  0  0  0
    4.5302    1.0369   -2.3480 H   0  0  0  0  0  0  0  0  0  0  0  0
    4.6761   -0.6326   -1.6994 H   0  0  0  0  0  0  0  0  0  0  0  0
    6.5860   -1.2071   -0.1560 H   0  0  0  0  0  0  0  0  0  0  0  0
    8.9366   -0.6888    0.4330 H   0  0  0  0  0  0  0  0  0  0  0  0
    9.9049    1.5193   -0.1702 H   0  0  0  0  0  0  0  0  0  0  0  0
    8.4936    3.1867   -1.3581 H   0  0  0  0  0  0  0  0  0  0  0  0
   -1.7588   -1.3413   -1.0752 H   0  0  0  0  0  0  0  0  0  0  0  0
   -2.7342    0.5982   -0.2691 H   0  0  0  0  0  0  0  0  0  0  0  0
   -2.7792   -0.0593    1.4140 H   0  0  0  0  0  0  0  0  0  0  0  0
   -4.9704    1.3515    1.6746 H   0  0  0  0  0  0  0  0  0  0  0  0
   -4.7572    1.9048   -0.0477 H   0  0  0  0  0  0  0  0  0  0  0  0
   -7.0102    2.3283   -0.3196 H   0  0  0  0  0  0  0  0  0  0  0  0
   -7.0798    2.3578    1.4916 H   0  0  0  0  0  0  0  0  0  0  0  0
   -8.5787    0.5942   -0.0485 H   0  0  0  0  0  0  0  0  0  0  0  0
   -7.9623    0.1920    1.5989 H   0  0  0  0  0  0  0  0  0  0  0  0
   -6.8621   -1.5690    0.5914 H   0  0  0  0  0  0  0  0  0  0  0  0
  1  2  1  0
  2  3  1  0
  2  4  1  0
  4  5  1  0
  5  6  2  0
  5  7  1  0
  7  8  1  0
  8  9  1  0
  9 10  1  0
 10 11  2  0
 11 12  1  0
 12 13  2  0
 13 14  1  0
 14 15  2  0
  2 16  1  0
 16 17  1  0
 17 18  1  0
 18 19  2  0
 18 20  1  0
 20 21  1  0
 21 22  1  0
 22 23  1  0
 23 24  1  0
 24 25  1  0
 25 26  3  0
 15 10  1  0
 24 20  1  0
  1 27  1  0
  1 28  1  0
  1 29  1  0
  3 30  1  0
  3 31  1  0
  3 32  1  0
  4 33  1  0
  4 34  1  0
  7 35  1  0
  8 36  1  0
  8 37  1  0
  9 38  1  0
  9 39  1  0
 11 40  1  0
 12 41  1  0
 13 42  1  0
 14 43  1  0
 16 44  1  0
 17 45  1  0
 17 46  1  0
 21 47  1  0
 21 48  1  0
 22 49  1  0
 22 50  1  0
 23 51  1  0
 23 52  1  0
 24 53  1  1
M  END
$$$$
