
     RDKit          3D

 59 63  0  0  0  0  0  0  0  0999 V2000
    7.7285    0.3936    4.0824 C   0  0  0  0  0  0  0  0  0  0  0  0
    7.0698    0.0938    3.1790 N   0  0  0  0  0  0  0  0  0  0  0  0
    6.2833   -0.2642    2.1004 C   0  0  0  0  0  0  0  0  0  0  0  0
    6.3995    0.4255    0.8884 C   0  0  0  0  0  0  0  0  0  0  0  0
    5.6032    0.0652   -0.2029 C   0  0  0  0  0  0  0  0  0  0  0  0
    4.6864   -0.9936   -0.0929 C   0  0  0  0  0  0  0  0  0  0  0  0
    3.7985   -1.3554   -1.2535 C   0  0  0  0  0  0  0  0  0  0  0  0
    2.5325   -0.6167   -1.1722 N   0  0  0  0  0  0  0  0  0  0  0  0
    1.4007   -1.1441   -0.4283 C   0  0  0  0  0  0  0  0  0  0  0  0
    1.4338   -2.3041    0.0621 O   0  0  0  0  0  0  0  0  0  0  0  0
    0.1994   -0.2918   -0.2759 C   0  0  0  0  0  0  0  0  0  0  0  0
    0.1400    0.9436   -0.8351 C   0  0  0  0  0  0  0  0  0  0  0  0
   -1.0246    1.5570   -0.5666 N   0  0  0  0  0  0  0  0  0  0  0  0
   -1.6742    0.6242    0.1782 C   0  0  0  0  0  0  0  0  0  0  0  0
   -2.9995    0.8429    0.6876 N   0  0  0  0  0  0  0  0  0  0  0  0
   -3.3243    2.1494    1.2739 C   0  0  0  0  0  0  0  0  0  0  0  0
   -4.7124    2.1330    1.9221 C   0  0  0  0  0  0  0  0  0  0  0  0
   -5.8037    1.6626    0.9413 C   0  0  0  0  0  0  0  0  0  0  0  0
   -5.3315    0.5729   -0.0601 C   0  0  1  0  0  0  0  0  0  0  0  0
   -5.0748    1.1705   -1.3741 N   0  0  0  0  0  0  0  0  0  0  0  0
   -4.0642   -0.1400    0.4432 C   0  0  0  0  0  0  0  0  0  0  0  0
   -0.9494   -0.5112    0.3906 N   0  0  0  0  0  0  0  0  0  0  0  0
   -1.2933   -1.6664    1.2215 C   0  0  0  0  0  0  0  0  0  0  0  0
   -1.7553   -2.7725    0.3784 C   0  0  0  0  0  0  0  0  0  0  0  0
   -2.1363   -3.6781   -0.3194 C   0  0  0  0  0  0  0  0  0  0  0  0
   -2.5997   -4.7749   -1.1687 C   0  0  0  0  0  0  0  0  0  0  0  0
    1.2277    1.4645   -1.5865 N   0  0  0  0  0  0  0  0  0  0  0  0
    1.4179    2.7571   -2.2023 C   0  0  0  0  0  0  0  0  0  0  0  0
    2.8527    2.6529   -2.7682 C   0  0  0  0  0  0  0  0  0  0  0  0
    3.3378    1.3242   -2.3821 N   0  0  0  0  0  0  0  0  0  0  0  0
    2.4078    0.7115   -1.7368 C   0  0  0  0  0  0  0  0  0  0  0  0
    4.5705   -1.6777    1.1285 C   0  0  0  0  0  0  0  0  0  0  0  0
    5.3678   -1.3159    2.2186 C   0  0  0  0  0  0  0  0  0  0  0  0
    7.1044    1.2419    0.7908 H   0  0  0  0  0  0  0  0  0  0  0  0
    5.7043    0.6104   -1.1326 H   0  0  0  0  0  0  0  0  0  0  0  0
    4.3110   -1.1325   -2.2148 H   0  0  0  0  0  0  0  0  0  0  0  0
    3.6070   -2.4505   -1.2612 H   0  0  0  0  0  0  0  0  0  0  0  0
   -3.2923    2.9299    0.4828 H   0  0  0  0  0  0  0  0  0  0  0  0
   -2.5712    2.4044    2.0509 H   0  0  0  0  0  0  0  0  0  0  0  0
   -4.9606    3.1484    2.2998 H   0  0  0  0  0  0  0  0  0  0  0  0
   -4.6876    1.4468    2.7973 H   0  0  0  0  0  0  0  0  0  0  0  0
   -6.1963    2.5463    0.3919 H   0  0  0  0  0  0  0  0  0  0  0  0
   -6.6531    1.2630    1.5374 H   0  0  0  0  0  0  0  0  0  0  0  0
   -6.1390   -0.1874   -0.1666 H   0  0  0  0  0  0  0  0  0  0  0  0
   -5.9768    1.5487   -1.7454 H   0  0  0  0  0  0  0  0  0  0  0  0
   -4.7945    0.4107   -2.0365 H   0  0  0  0  0  0  0  0  0  0  0  0
   -3.7426   -0.8911   -0.3105 H   0  0  0  0  0  0  0  0  0  0  0  0
   -4.2946   -0.6795    1.3869 H   0  0  0  0  0  0  0  0  0  0  0  0
   -2.0837   -1.4017    1.9524 H   0  0  0  0  0  0  0  0  0  0  0  0
   -0.4089   -1.9925    1.8069 H   0  0  0  0  0  0  0  0  0  0  0  0
   -3.5326   -4.4720   -1.6871 H   0  0  0  0  0  0  0  0  0  0  0  0
   -1.8200   -5.0148   -1.9207 H   0  0  0  0  0  0  0  0  0  0  0  0
   -2.7978   -5.6692   -0.5429 H   0  0  0  0  0  0  0  0  0  0  0  0
    0.6728    2.9105   -3.0120 H   0  0  0  0  0  0  0  0  0  0  0  0
    1.3450    3.5601   -1.4376 H   0  0  0  0  0  0  0  0  0  0  0  0
    2.8468    2.7422   -3.8755 H   0  0  0  0  0  0  0  0  0  0  0  0
    3.5090    3.4345   -2.3293 H   0  0  0  0  0  0  0  0  0  0  0  0
    3.8656   -2.4919    1.2373 H   0  0  0  0  0  0  0  0  0  0  0  0
    5.2712   -1.8524    3.1544 H   0  0  0  0  0  0  0  0  0  0  0  0
  1  2  3  0
  2  3  1  0
  3  4  2  0
  4  5  1  0
  5  6  2  0
  6  7  1  0
  7  8  1  0
  8  9  1  0
  9 10  2  0
  9 11  1  0
 11 12  2  0
 12 13  1  0
 13 14  2  0
 14 15  1  0
 15 16  1  0
 16 17  1  0
 17 18  1  0
 18 19  1  0
 19 20  1  0
 19 21  1  0
 14 22  1  0
 22 23  1  0
 23 24  1  0
 24 25  3  0
 25 26  1  0
 12 27  1  0
 27 28  1  0
 28 29  1  0
 29 30  1  0
 30 31  2  0
  6 32  1  0
 32 33  2  0
 33  3  1  0
 31  8  1  0
 22 11  1  0
 31 27  1  0
 21 15  1  0
  4 34  1  0
  5 35  1  0
  7 36  1  0
  7 37  1  0
 16 38  1  0
 16 39  1  0
 17 40  1  0
 17 41  1  0
 18 42  1  0
 18 43  1  0
 19 44  1  6
 20 45  1  0
 20 46  1  0
 21 47  1  0
 21 48  1  0
 23 49  1  0
 23 50  1  0
 26 51  1  0
 26 52  1  0
 26 53  1  0
 28 54  1  0
 28 55  1  0
 29 56  1  0
 29 57  1  0
 32 58  1  0
 33 59  1  0
M  CHG  2   1  -1   2   1
M  END
$$$$
