
     RDKit          3D

 46 46  0  0  0  0  0  0  0  0999 V2000
   -4.6148    0.1930    1.5900 C   0  0  0  0  0  0  0  0  0  0  0  0
   -4.3485   -0.7423    0.4052 C   0  0  0  0  0  0  0  0  0  0  0  0
   -3.5376   -1.9710    0.8451 C   0  0  0  0  0  0  0  0  0  0  0  0
   -3.7549   -0.0241   -0.8398 C   0  0  0  0  0  0  0  0  0  0  0  0
   -2.4846    0.8482   -0.6519 C   0  0  2  0  0  0  0  0  0  0  0  0
   -1.4139    0.1027    0.0175 N   0  0  0  0  0  0  0  0  0  0  0  0
   -0.6135   -0.8704   -0.6714 C   0  0  0  0  0  0  0  0  0  0  0  0
   -0.7531   -1.0419   -1.9134 O   0  0  0  0  0  0  0  0  0  0  0  0
    0.4284   -1.6639    0.0794 C   0  0  1  0  0  0  0  0  0  0  0  0
    0.3027   -3.0301   -0.2320 O   0  0  0  0  0  0  0  0  0  0  0  0
    1.8655   -1.1461   -0.2118 C   0  0  2  0  0  0  0  0  0  0  0  0
    2.8689   -2.0040    0.4286 N   0  0  0  0  0  0  0  0  0  0  0  0
    2.0501    0.3084    0.2722 C   0  0  0  0  0  0  0  0  0  0  0  0
    3.4181    0.8360   -0.0778 C   0  0  0  0  0  0  0  0  0  0  0  0
    3.6755    1.3307   -1.3674 C   0  0  0  0  0  0  0  0  0  0  0  0
    4.9511    1.7958   -1.7019 C   0  0  0  0  0  0  0  0  0  0  0  0
    5.9788    1.7638   -0.7553 C   0  0  0  0  0  0  0  0  0  0  0  0
    5.7334    1.2640    0.5266 C   0  0  0  0  0  0  0  0  0  0  0  0
    4.4591    0.7980    0.8654 C   0  0  0  0  0  0  0  0  0  0  0  0
   -2.7700    2.1615    0.0378 C   0  0  0  0  0  0  0  0  0  0  0  0
   -3.6999    2.9007   -0.3840 O   0  0  0  0  0  0  0  0  0  0  0  0
   -1.9800    2.5974    1.0988 O   0  0  0  0  0  0  0  0  0  0  0  0
   -3.6642    0.5276    2.0549 H   0  0  0  0  0  0  0  0  0  0  0  0
   -5.2078   -0.3392    2.3642 H   0  0  0  0  0  0  0  0  0  0  0  0
   -5.1984    1.0779    1.2590 H   0  0  0  0  0  0  0  0  0  0  0  0
   -5.3406   -1.1312    0.0830 H   0  0  0  0  0  0  0  0  0  0  0  0
   -4.1545   -2.6020    1.5200 H   0  0  0  0  0  0  0  0  0  0  0  0
   -3.2519   -2.5886   -0.0327 H   0  0  0  0  0  0  0  0  0  0  0  0
   -2.6242   -1.6834    1.4022 H   0  0  0  0  0  0  0  0  0  0  0  0
   -3.5340   -0.7932   -1.6118 H   0  0  0  0  0  0  0  0  0  0  0  0
   -4.5530    0.6086   -1.2869 H   0  0  0  0  0  0  0  0  0  0  0  0
   -2.1273    1.1293   -1.6673 H   0  0  0  0  0  0  0  0  0  0  0  0
   -1.2549    0.2366    1.0417 H   0  0  0  0  0  0  0  0  0  0  0  0
    0.2353   -1.5610    1.1694 H   0  0  0  0  0  0  0  0  0  0  0  0
    0.5652   -3.1509   -1.1823 H   0  0  0  0  0  0  0  0  0  0  0  0
    2.0342   -1.1702   -1.3128 H   0  0  0  0  0  0  0  0  0  0  0  0
    2.6240   -2.1357    1.4373 H   0  0  0  0  0  0  0  0  0  0  0  0
    2.8602   -2.9445   -0.0282 H   0  0  0  0  0  0  0  0  0  0  0  0
    1.2891    0.9679   -0.1979 H   0  0  0  0  0  0  0  0  0  0  0  0
    1.8876    0.3629    1.3714 H   0  0  0  0  0  0  0  0  0  0  0  0
    2.8891    1.3542   -2.1118 H   0  0  0  0  0  0  0  0  0  0  0  0
    5.1436    2.1785   -2.6958 H   0  0  0  0  0  0  0  0  0  0  0  0
    6.9659    2.1230   -1.0161 H   0  0  0  0  0  0  0  0  0  0  0  0
    6.5314    1.2350    1.2572 H   0  0  0  0  0  0  0  0  0  0  0  0
    4.2848    0.4061    1.8598 H   0  0  0  0  0  0  0  0  0  0  0  0
   -2.1601    3.4860    1.5505 H   0  0  0  0  0  0  0  0  0  0  0  0
  1  2  1  0
  2  3  1  0
  2  4  1  0
  4  5  1  0
  5  6  1  0
  6  7  1  0
  7  8  2  0
  7  9  1  0
  9 10  1  0
  9 11  1  0
 11 12  1  0
 11 13  1  0
 13 14  1  0
 14 15  2  0
 15 16  1  0
 16 17  2  0
 17 18  1  0
 18 19  2  0
  5 20  1  0
 20 21  2  0
 20 22  1  0
 19 14  1  0
  1 23  1  0
  1 24  1  0
  1 25  1  0
  2 26  1  0
  3 27  1  0
  3 28  1  0
  3 29  1  0
  4 30  1  0
  4 31  1  0
  5 32  1  6
  6 33  1  0
  9 34  1  1
 10 35  1  0
 11 36  1  6
 12 37  1  0
 12 38  1  0
 13 39  1  0
 13 40  1  0
 15 41  1  0
 16 42  1  0
 17 43  1  0
 18 44  1  0
 19 45  1  0
 22 46  1  0
M  END
$$$$
