
     RDKit          3D

 49 52  0  0  0  0  0  0  0  0999 V2000
   -4.2531    2.0682    0.5738 O   0  0  0  0  0  0  0  0  0  0  0  0
   -4.1038    1.0242   -0.1196 C   0  0  0  0  0  0  0  0  0  0  0  0
   -2.8818    0.8989   -1.0016 C   0  0  2  0  0  0  0  0  0  0  0  0
   -1.7838    0.0863   -0.3140 C   0  0  0  0  0  0  0  0  0  0  0  0
   -0.4899    0.8171   -0.6429 C   0  0  2  0  0  0  0  0  0  0  0  0
    0.5370    0.6625    0.4239 N   0  0  0  0  0  0  0  0  0  0  0  0
    0.9817   -0.7509    0.5809 C   0  0  0  0  0  0  0  0  0  0  0  0
    2.3154   -1.0554   -0.1169 C   0  0  0  0  0  0  0  0  0  0  0  0
    3.3607   -0.1367    0.3524 N   0  0  0  0  0  0  0  0  0  0  0  0
    4.7565   -0.5034    0.3148 C   0  0  0  0  0  0  0  0  0  0  0  0
    5.2333   -1.4787   -0.5805 C   0  0  0  0  0  0  0  0  0  0  0  0
    6.5916   -1.8022   -0.5879 C   0  0  0  0  0  0  0  0  0  0  0  0
    7.4661   -1.1558    0.2872 C   0  0  0  0  0  0  0  0  0  0  0  0
    9.1749   -1.5511    0.2875 Cl  0  0  0  0  0  0  0  0  0  0  0  0
    6.9647   -0.1873    1.1590 C   0  0  0  0  0  0  0  0  0  0  0  0
    5.6389    0.1136    1.1519 N   0  0  0  0  0  0  0  0  0  0  0  0
    2.9567    1.1547    0.9171 C   0  0  0  0  0  0  0  0  0  0  0  0
    1.6601    1.6235    0.2491 C   0  0  0  0  0  0  0  0  0  0  0  0
   -0.9723    2.2604   -0.7943 C   0  0  0  0  0  0  0  0  0  0  0  0
   -2.3375    2.2262   -1.3142 N   0  0  0  0  0  0  0  0  0  0  0  0
   -5.0603   -0.0485    0.0026 N   0  0  0  0  0  0  0  0  0  0  0  0
   -6.1415    0.0146    0.9759 C   0  0  0  0  0  0  0  0  0  0  0  0
   -6.7462   -1.3733    1.0968 C   0  0  0  0  0  0  0  0  0  0  0  0
   -6.5100   -2.2301   -0.4835 S   0  0  0  0  0  0  0  0  0  0  0  0
   -5.0259   -1.2436   -0.8312 C   0  0  0  0  0  0  0  0  0  0  0  0
   -3.1634    0.3914   -1.9515 H   0  0  0  0  0  0  0  0  0  0  0  0
   -1.9318    0.0612    0.7901 H   0  0  0  0  0  0  0  0  0  0  0  0
   -1.7733   -0.9538   -0.7055 H   0  0  0  0  0  0  0  0  0  0  0  0
   -0.0960    0.4563   -1.6215 H   0  0  0  0  0  0  0  0  0  0  0  0
    1.1028   -0.9541    1.6669 H   0  0  0  0  0  0  0  0  0  0  0  0
    0.2276   -1.4802    0.2219 H   0  0  0  0  0  0  0  0  0  0  0  0
    2.5941   -2.1045    0.1241 H   0  0  0  0  0  0  0  0  0  0  0  0
    2.2000   -0.9575   -1.2177 H   0  0  0  0  0  0  0  0  0  0  0  0
    4.5708   -1.9749   -1.2770 H   0  0  0  0  0  0  0  0  0  0  0  0
    6.9629   -2.5509   -1.2760 H   0  0  0  0  0  0  0  0  0  0  0  0
    7.6265    0.3278    1.8426 H   0  0  0  0  0  0  0  0  0  0  0  0
    2.8105    1.0542    2.0142 H   0  0  0  0  0  0  0  0  0  0  0  0
    3.7414    1.9204    0.7304 H   0  0  0  0  0  0  0  0  0  0  0  0
    1.3771    2.6010    0.6944 H   0  0  0  0  0  0  0  0  0  0  0  0
    1.8764    1.7863   -0.8318 H   0  0  0  0  0  0  0  0  0  0  0  0
   -0.3050    2.8366   -1.4736 H   0  0  0  0  0  0  0  0  0  0  0  0
   -0.9926    2.7659    0.1961 H   0  0  0  0  0  0  0  0  0  0  0  0
   -2.2915    2.3327   -2.3558 H   0  0  0  0  0  0  0  0  0  0  0  0
   -5.7552    0.3385    1.9670 H   0  0  0  0  0  0  0  0  0  0  0  0
   -6.9083    0.7389    0.6254 H   0  0  0  0  0  0  0  0  0  0  0  0
   -7.8267   -1.3142    1.3457 H   0  0  0  0  0  0  0  0  0  0  0  0
   -6.2191   -1.9464    1.8895 H   0  0  0  0  0  0  0  0  0  0  0  0
   -4.1211   -1.8428   -0.5994 H   0  0  0  0  0  0  0  0  0  0  0  0
   -5.0381   -0.9653   -1.9053 H   0  0  0  0  0  0  0  0  0  0  0  0
  1  2  2  0
  2  3  1  0
  3  4  1  0
  4  5  1  0
  5  6  1  0
  6  7  1  0
  7  8  1  0
  8  9  1  0
  9 10  1  0
 10 11  2  0
 11 12  1  0
 12 13  2  0
 13 14  1  0
 13 15  1  0
 15 16  2  0
  9 17  1  0
 17 18  1  0
  5 19  1  0
 19 20  1  0
  2 21  1  0
 21 22  1  0
 22 23  1  0
 23 24  1  0
 24 25  1  0
 20  3  1  0
 25 21  1  0
 18  6  1  0
 16 10  1  0
  3 26  1  6
  4 27  1  0
  4 28  1  0
  5 29  1  6
  7 30  1  0
  7 31  1  0
  8 32  1  0
  8 33  1  0
 11 34  1  0
 12 35  1  0
 15 36  1  0
 17 37  1  0
 17 38  1  0
 18 39  1  0
 18 40  1  0
 19 41  1  0
 19 42  1  0
 20 43  1  0
 22 44  1  0
 22 45  1  0
 23 46  1  0
 23 47  1  0
 25 48  1  0
 25 49  1  0
M  END
$$$$
