
     RDKit          3D

 42 44  0  0  0  0  0  0  0  0999 V2000
    5.1254   -0.7781    0.0959 C   0  0  0  0  0  0  0  0  0  0  0  0
    3.7474   -0.2131    0.4263 C   0  0  0  0  0  0  0  0  0  0  0  0
    2.9058   -0.0205   -0.8419 C   0  0  0  0  0  0  0  0  0  0  0  0
    1.5480    0.4642   -0.4951 N   0  0  0  0  0  0  0  0  0  0  0  0
    0.5043   -0.4141   -0.2533 C   0  0  0  0  0  0  0  0  0  0  0  0
    0.6945   -1.9269   -0.3920 C   0  0  0  0  0  0  0  0  0  0  0  0
    0.4195   -2.3768   -1.7558 N   0  0  0  0  0  0  0  0  0  0  0  0
   -0.7828    0.0914    0.0791 C   0  0  0  0  0  0  0  0  0  0  0  0
   -1.9207   -0.8310    0.3136 C   0  0  0  0  0  0  0  0  0  0  0  0
   -2.1186   -1.3971    1.5827 C   0  0  0  0  0  0  0  0  0  0  0  0
   -3.2058   -2.2466    1.8096 C   0  0  0  0  0  0  0  0  0  0  0  0
   -4.1038   -2.5264    0.7753 C   0  0  0  0  0  0  0  0  0  0  0  0
   -3.9182   -1.9542   -0.4868 C   0  0  0  0  0  0  0  0  0  0  0  0
   -2.8323   -1.1043   -0.7177 C   0  0  0  0  0  0  0  0  0  0  0  0
   -0.9773    1.4846    0.1961 C   0  0  0  0  0  0  0  0  0  0  0  0
   -2.2346    2.0358    0.5393 C   0  0  0  0  0  0  0  0  0  0  0  0
   -2.4013    3.4174    0.6560 C   0  0  0  0  0  0  0  0  0  0  0  0
   -3.9692    4.0796    1.0818 Cl  0  0  0  0  0  0  0  0  0  0  0  0
   -1.3225    4.2710    0.4365 C   0  0  0  0  0  0  0  0  0  0  0  0
   -0.0747    3.7479    0.1004 C   0  0  0  0  0  0  0  0  0  0  0  0
    0.1109    2.3546   -0.0234 C   0  0  0  0  0  0  0  0  0  0  0  0
    1.3659    1.8215   -0.3605 C   0  0  0  0  0  0  0  0  0  0  0  0
    2.3385    2.6103   -0.5377 O   0  0  0  0  0  0  0  0  0  0  0  0
    5.7124   -0.8967    1.0310 H   0  0  0  0  0  0  0  0  0  0  0  0
    5.0276   -1.7721   -0.3904 H   0  0  0  0  0  0  0  0  0  0  0  0
    5.6724   -0.0891   -0.5824 H   0  0  0  0  0  0  0  0  0  0  0  0
    3.2310   -0.9048    1.1250 H   0  0  0  0  0  0  0  0  0  0  0  0
    3.8720    0.7642    0.9405 H   0  0  0  0  0  0  0  0  0  0  0  0
    3.4197    0.6994   -1.5167 H   0  0  0  0  0  0  0  0  0  0  0  0
    2.8735   -0.9545   -1.4360 H   0  0  0  0  0  0  0  0  0  0  0  0
    0.0411   -2.4843    0.3091 H   0  0  0  0  0  0  0  0  0  0  0  0
    1.7120   -2.2468   -0.0966 H   0  0  0  0  0  0  0  0  0  0  0  0
   -0.5891   -2.2092   -1.9697 H   0  0  0  0  0  0  0  0  0  0  0  0
    0.9765   -1.8055   -2.4308 H   0  0  0  0  0  0  0  0  0  0  0  0
   -1.4304   -1.1815    2.3907 H   0  0  0  0  0  0  0  0  0  0  0  0
   -3.3535   -2.6860    2.7876 H   0  0  0  0  0  0  0  0  0  0  0  0
   -4.9454   -3.1834    0.9527 H   0  0  0  0  0  0  0  0  0  0  0  0
   -4.6174   -2.1669   -1.2850 H   0  0  0  0  0  0  0  0  0  0  0  0
   -2.7006   -0.6589   -1.6961 H   0  0  0  0  0  0  0  0  0  0  0  0
   -3.0949    1.4057    0.7228 H   0  0  0  0  0  0  0  0  0  0  0  0
   -1.4489    5.3424    0.5270 H   0  0  0  0  0  0  0  0  0  0  0  0
    0.7434    4.4387   -0.0629 H   0  0  0  0  0  0  0  0  0  0  0  0
  1  2  1  0
  2  3  1  0
  3  4  1  0
  4  5  1  0
  5  6  1  0
  6  7  1  0
  5  8  2  0
  8  9  1  0
  9 10  2  0
 10 11  1  0
 11 12  2  0
 12 13  1  0
 13 14  2  0
  8 15  1  0
 15 16  2  0
 16 17  1  0
 17 18  1  0
 17 19  2  0
 19 20  1  0
 20 21  2  0
 21 22  1  0
 22 23  2  0
 22  4  1  0
 14  9  1  0
 21 15  1  0
  1 24  1  0
  1 25  1  0
  1 26  1  0
  2 27  1  0
  2 28  1  0
  3 29  1  0
  3 30  1  0
  6 31  1  0
  6 32  1  0
  7 33  1  0
  7 34  1  0
 10 35  1  0
 11 36  1  0
 12 37  1  0
 13 38  1  0
 14 39  1  0
 16 40  1  0
 19 41  1  0
 20 42  1  0
M  END
$$$$
