
     RDKit          3D

 41 42  0  0  0  0  0  0  0  0999 V2000
   -2.1477   -2.0764    1.6935 N   0  0  0  0  0  0  0  0  0  0  0  0
   -2.6699   -1.4011    0.9122 C   0  0  0  0  0  0  0  0  0  0  0  0
   -3.3346   -0.5406   -0.0816 C   0  0  2  0  0  0  0  0  0  0  0  0
   -3.2553   -1.1530   -1.4817 C   0  0  0  0  0  0  0  0  0  0  0  0
   -2.9147    0.0020   -2.4192 C   0  0  0  0  0  0  0  0  0  0  0  0
   -2.2830    1.0767   -1.5450 C   0  0  0  0  0  0  0  0  0  0  0  0
   -2.6628    0.7473   -0.1805 N   0  0  0  0  0  0  0  0  0  0  0  0
   -2.5125    1.6535    0.9292 C   0  0  0  0  0  0  0  0  0  0  0  0
   -3.1553    1.4520    1.9949 O   0  0  0  0  0  0  0  0  0  0  0  0
   -1.5722    2.8238    0.8557 C   0  0  0  0  0  0  0  0  0  0  0  0
   -0.2088    2.3613    0.5715 N   0  0  0  0  0  0  0  0  0  0  0  0
    0.4424    1.8257    1.7758 C   0  0  0  0  0  0  0  0  0  0  0  0
    1.6491    0.9689    1.3842 C   0  0  0  0  0  0  0  0  0  0  0  0
    1.2201   -0.3060    0.6451 C   0  0  0  0  0  0  0  0  0  0  0  0
    2.4210   -1.1331    0.2745 C   0  0  0  0  0  0  0  0  0  0  0  0
    3.0823   -0.9146   -0.9457 C   0  0  0  0  0  0  0  0  0  0  0  0
    4.2162   -1.6634   -1.2757 C   0  0  0  0  0  0  0  0  0  0  0  0
    4.7024   -2.6269   -0.3876 C   0  0  0  0  0  0  0  0  0  0  0  0
    4.0577   -2.8406    0.8339 C   0  0  0  0  0  0  0  0  0  0  0  0
    2.9234   -2.0940    1.1679 C   0  0  0  0  0  0  0  0  0  0  0  0
   -4.3957   -0.3846    0.2107 H   0  0  0  0  0  0  0  0  0  0  0  0
   -2.4468   -1.9165   -1.5497 H   0  0  0  0  0  0  0  0  0  0  0  0
   -4.2193   -1.6278   -1.7668 H   0  0  0  0  0  0  0  0  0  0  0  0
   -2.2225   -0.3209   -3.2271 H   0  0  0  0  0  0  0  0  0  0  0  0
   -3.8497    0.3952   -2.8760 H   0  0  0  0  0  0  0  0  0  0  0  0
   -1.1769    1.0559   -1.6433 H   0  0  0  0  0  0  0  0  0  0  0  0
   -2.6712    2.0788   -1.8288 H   0  0  0  0  0  0  0  0  0  0  0  0
   -1.6022    3.4151    1.7994 H   0  0  0  0  0  0  0  0  0  0  0  0
   -1.9123    3.4964    0.0392 H   0  0  0  0  0  0  0  0  0  0  0  0
    0.3492    3.1842    0.2427 H   0  0  0  0  0  0  0  0  0  0  0  0
   -0.2592    1.1989    2.3710 H   0  0  0  0  0  0  0  0  0  0  0  0
    0.7845    2.6630    2.4249 H   0  0  0  0  0  0  0  0  0  0  0  0
    2.1994    0.6877    2.3088 H   0  0  0  0  0  0  0  0  0  0  0  0
    2.3345    1.5666    0.7435 H   0  0  0  0  0  0  0  0  0  0  0  0
    0.5390   -0.9021    1.2910 H   0  0  0  0  0  0  0  0  0  0  0  0
    0.6532   -0.0414   -0.2737 H   0  0  0  0  0  0  0  0  0  0  0  0
    2.7205   -0.1650   -1.6387 H   0  0  0  0  0  0  0  0  0  0  0  0
    4.7200   -1.4945   -2.2187 H   0  0  0  0  0  0  0  0  0  0  0  0
    5.5809   -3.2048   -0.6441 H   0  0  0  0  0  0  0  0  0  0  0  0
    4.4388   -3.5826    1.5236 H   0  0  0  0  0  0  0  0  0  0  0  0
    2.4379   -2.2631    2.1212 H   0  0  0  0  0  0  0  0  0  0  0  0
  1  2  3  0
  2  3  1  0
  3  4  1  0
  4  5  1  0
  5  6  1  0
  6  7  1  0
  7  8  1  0
  8  9  2  0
  8 10  1  0
 10 11  1  0
 11 12  1  0
 12 13  1  0
 13 14  1  0
 14 15  1  0
 15 16  2  0
 16 17  1  0
 17 18  2  0
 18 19  1  0
 19 20  2  0
  7  3  1  0
 20 15  1  0
  3 21  1  1
  4 22  1  0
  4 23  1  0
  5 24  1  0
  5 25  1  0
  6 26  1  0
  6 27  1  0
 10 28  1  0
 10 29  1  0
 11 30  1  0
 12 31  1  0
 12 32  1  0
 13 33  1  0
 13 34  1  0
 14 35  1  0
 14 36  1  0
 16 37  1  0
 17 38  1  0
 18 39  1  0
 19 40  1  0
 20 41  1  0
M  END
$$$$
