
     RDKit          3D

 54 55  0  0  0  0  0  0  0  0999 V2000
   -8.3014   -0.7382    1.0543 C   0  0  0  0  0  0  0  0  0  0  0  0
   -6.8648   -0.3479    0.8249 C   0  0  0  0  0  0  0  0  0  0  0  0
   -5.9843   -0.2901    1.9173 C   0  0  0  0  0  0  0  0  0  0  0  0
   -4.6475    0.0656    1.7344 C   0  0  0  0  0  0  0  0  0  0  0  0
   -4.1573    0.3551    0.4562 C   0  0  0  0  0  0  0  0  0  0  0  0
   -2.7813    0.7407    0.3015 N   0  0  0  0  0  0  0  0  0  0  0  0
   -1.9627    0.3679   -0.8196 C   0  0  0  0  0  0  0  0  0  0  0  0
   -2.3932   -0.4389   -1.6877 O   0  0  0  0  0  0  0  0  0  0  0  0
   -0.5650    0.9161   -0.9491 C   0  0  0  0  0  0  0  0  0  0  0  0
    0.5620    0.0114   -0.3574 C   0  0  0  0  0  0  0  0  0  0  0  0
    0.6086   -1.3344   -1.1232 C   0  0  0  0  0  0  0  0  0  0  0  0
    0.2746   -0.2489    1.1408 C   0  0  0  0  0  0  0  0  0  0  0  0
    1.8397    0.7605   -0.5013 N   0  0  0  0  0  0  0  0  0  0  0  0
    3.0704    0.0063   -0.2002 C   0  0  0  0  0  0  0  0  0  0  0  0
    4.2418    0.9397   -0.0447 C   0  0  0  0  0  0  0  0  0  0  0  0
    4.0449    2.1843    0.0229 O   0  0  0  0  0  0  0  0  0  0  0  0
    5.5829    0.4261    0.0652 N   0  0  0  0  0  0  0  0  0  0  0  0
    5.9047   -0.9915    0.1228 C   0  0  0  0  0  0  0  0  0  0  0  0
    7.4223   -1.0665    0.2312 C   0  0  0  0  0  0  0  0  0  0  0  0
    7.8774    0.3250    0.6633 C   0  0  0  0  0  0  0  0  0  0  0  0
    6.7498    1.2745    0.2582 C   0  0  1  0  0  0  0  0  0  0  0  0
    7.0699    1.9779   -0.9946 C   0  0  0  0  0  0  0  0  0  0  0  0
    7.3208    2.5308   -1.9798 N   0  0  0  0  0  0  0  0  0  0  0  0
   -5.0357    0.3204   -0.6394 C   0  0  0  0  0  0  0  0  0  0  0  0
   -6.3836   -0.0422   -0.4705 C   0  0  0  0  0  0  0  0  0  0  0  0
   -7.2968   -0.0678   -1.6685 C   0  0  0  0  0  0  0  0  0  0  0  0
   -8.5182   -1.6939    0.5329 H   0  0  0  0  0  0  0  0  0  0  0  0
   -8.9763    0.0539    0.6678 H   0  0  0  0  0  0  0  0  0  0  0  0
   -8.5217   -0.8762    2.1343 H   0  0  0  0  0  0  0  0  0  0  0  0
   -6.3318   -0.5187    2.9172 H   0  0  0  0  0  0  0  0  0  0  0  0
   -3.9867    0.1057    2.5915 H   0  0  0  0  0  0  0  0  0  0  0  0
   -2.3216    1.2365    1.0986 H   0  0  0  0  0  0  0  0  0  0  0  0
   -0.5289    1.9124   -0.4560 H   0  0  0  0  0  0  0  0  0  0  0  0
   -0.3662    1.0981   -2.0284 H   0  0  0  0  0  0  0  0  0  0  0  0
    0.8470   -1.1629   -2.1946 H   0  0  0  0  0  0  0  0  0  0  0  0
   -0.3618   -1.8677   -1.0547 H   0  0  0  0  0  0  0  0  0  0  0  0
    1.3709   -2.0169   -0.6929 H   0  0  0  0  0  0  0  0  0  0  0  0
    0.2862    0.7067    1.7074 H   0  0  0  0  0  0  0  0  0  0  0  0
   -0.7134   -0.7347    1.2804 H   0  0  0  0  0  0  0  0  0  0  0  0
    1.0155   -0.9366    1.5934 H   0  0  0  0  0  0  0  0  0  0  0  0
    1.9280    1.1023   -1.4886 H   0  0  0  0  0  0  0  0  0  0  0  0
    3.2914   -0.7002   -1.0293 H   0  0  0  0  0  0  0  0  0  0  0  0
    2.9781   -0.5643    0.7432 H   0  0  0  0  0  0  0  0  0  0  0  0
    5.4296   -1.4471    1.0185 H   0  0  0  0  0  0  0  0  0  0  0  0
    5.5573   -1.5085   -0.7975 H   0  0  0  0  0  0  0  0  0  0  0  0
    7.7397   -1.8419    0.9618 H   0  0  0  0  0  0  0  0  0  0  0  0
    7.8564   -1.3034   -0.7652 H   0  0  0  0  0  0  0  0  0  0  0  0
    8.8593    0.5893    0.2106 H   0  0  0  0  0  0  0  0  0  0  0  0
    7.9869    0.3412    1.7703 H   0  0  0  0  0  0  0  0  0  0  0  0
    6.5638    2.0160    1.0656 H   0  0  0  0  0  0  0  0  0  0  0  0
   -4.6784    0.6005   -1.6219 H   0  0  0  0  0  0  0  0  0  0  0  0
   -7.7911   -1.0584   -1.7491 H   0  0  0  0  0  0  0  0  0  0  0  0
   -8.0697    0.7225   -1.5670 H   0  0  0  0  0  0  0  0  0  0  0  0
   -6.7401    0.1104   -2.6130 H   0  0  0  0  0  0  0  0  0  0  0  0
  1  2  1  0
  2  3  2  0
  3  4  1  0
  4  5  2  0
  5  6  1  0
  6  7  1  0
  7  8  2  0
  7  9  1  0
  9 10  1  0
 10 11  1  0
 10 12  1  0
 10 13  1  0
 13 14  1  0
 14 15  1  0
 15 16  2  0
 15 17  1  0
 17 18  1  0
 18 19  1  0
 19 20  1  0
 20 21  1  0
 21 22  1  0
 22 23  3  0
  5 24  1  0
 24 25  2  0
 25 26  1  0
 25  2  1  0
 21 17  1  0
  1 27  1  0
  1 28  1  0
  1 29  1  0
  3 30  1  0
  4 31  1  0
  6 32  1  0
  9 33  1  0
  9 34  1  0
 11 35  1  0
 11 36  1  0
 11 37  1  0
 12 38  1  0
 12 39  1  0
 12 40  1  0
 13 41  1  0
 14 42  1  0
 14 43  1  0
 18 44  1  0
 18 45  1  0
 19 46  1  0
 19 47  1  0
 20 48  1  0
 20 49  1  0
 21 50  1  1
 24 51  1  0
 26 52  1  0
 26 53  1  0
 26 54  1  0
M  END
$$$$
