
     RDKit          3D

 69 71  0  0  0  0  0  0  0  0999 V2000
   -3.5058    2.4396   -3.1245 N   0  0  0  0  0  0  0  0  0  0  0  0
   -3.7388    1.3036   -2.2269 C   0  0  1  0  0  0  0  0  0  0  0  0
   -2.4290    0.5090   -2.0101 C   0  0  0  0  0  0  0  0  0  0  0  0
   -1.4333    1.1901   -1.0958 C   0  0  0  0  0  0  0  0  0  0  0  0
   -1.0146    2.3351   -1.4173 O   0  0  0  0  0  0  0  0  0  0  0  0
   -0.9131    0.5481    0.0935 N   0  0  0  0  0  0  0  0  0  0  0  0
   -1.0244   -0.9151    0.2712 C   0  0  0  0  0  0  0  0  0  0  0  0
   -0.1560   -1.4191    1.4313 C   0  0  0  0  0  0  0  0  0  0  0  0
    1.1242   -0.7153    1.4058 N   0  0  0  0  0  0  0  0  0  0  0  0
    2.2019   -1.1480    0.5955 C   0  0  0  0  0  0  0  0  0  0  0  0
    2.4554   -2.3610    0.3659 O   0  0  0  0  0  0  0  0  0  0  0  0
    2.9216   -0.0791    0.0189 N   0  0  0  0  0  0  0  0  0  0  0  0
    4.0087   -0.1987   -0.9489 C   0  0  0  0  0  0  0  0  0  0  0  0
    5.2596   -0.6673   -0.2596 C   0  0  0  0  0  0  0  0  0  0  0  0
    5.9992    0.2238    0.5351 C   0  0  0  0  0  0  0  0  0  0  0  0
    7.1467   -0.2143    1.2033 C   0  0  0  0  0  0  0  0  0  0  0  0
    7.5592   -1.5451    1.0885 C   0  0  0  0  0  0  0  0  0  0  0  0
    8.6713   -1.9687    1.7383 F   0  0  0  0  0  0  0  0  0  0  0  0
    6.8225   -2.4401    0.3070 C   0  0  0  0  0  0  0  0  0  0  0  0
    5.6744   -2.0055   -0.3628 C   0  0  0  0  0  0  0  0  0  0  0  0
    2.2473    1.1599    0.3753 C   0  0  0  0  0  0  0  0  0  0  0  0
    1.1720    0.7520    1.4208 C   0  0  0  0  0  0  0  0  0  0  0  0
   -0.2165    1.3482    1.1194 C   0  0  0  0  0  0  0  0  0  0  0  0
   -4.4260    1.7659   -0.9156 C   0  0  0  0  0  0  0  0  0  0  0  0
   -4.6524    0.6414    0.0718 C   0  0  0  0  0  0  0  0  0  0  0  0
   -5.4333   -0.4709   -0.2908 C   0  0  0  0  0  0  0  0  0  0  0  0
   -5.6345   -1.5200    0.6113 C   0  0  0  0  0  0  0  0  0  0  0  0
   -6.3777   -2.5932    0.2444 F   0  0  0  0  0  0  0  0  0  0  0  0
   -5.0730   -1.4616    1.8897 C   0  0  0  0  0  0  0  0  0  0  0  0
   -5.2659   -2.4793    2.7647 F   0  0  0  0  0  0  0  0  0  0  0  0
   -4.3208   -0.3483    2.2711 C   0  0  0  0  0  0  0  0  0  0  0  0
   -4.1159    0.7044    1.3736 C   0  0  0  0  0  0  0  0  0  0  0  0
   -3.4002    1.7827    1.7805 F   0  0  0  0  0  0  0  0  0  0  0  0
   -2.6510   -1.4342    0.6710 O   0  0  0  0  0  0  0  0  0  0  0  0
   -1.8991   -0.5645    0.1565 C   0  0  0  0  0  0  0  0  0  0  0  0
   -2.4500    0.4497   -0.6231 O   0  0  0  0  0  0  0  0  0  0  0  0
   -0.4482   -0.6345    0.3880 C   0  0  0  0  0  0  0  0  0  0  0  0
    0.3969    0.2620   -0.1335 C   0  0  0  0  0  0  0  0  0  0  0  0
    1.8500    0.1994    0.0930 C   0  0  0  0  0  0  0  0  0  0  0  0
    2.3592   -0.7145    0.7971 O   0  0  0  0  0  0  0  0  0  0  0  0
    2.6698    1.1656   -0.4806 O   0  0  0  0  0  0  0  0  0  0  0  0
   -4.4325    2.7966   -3.4538 H   0  0  0  0  0  0  0  0  0  0  0  0
   -3.0524    3.2226   -2.6012 H   0  0  0  0  0  0  0  0  0  0  0  0
   -4.4375    0.6141   -2.7514 H   0  0  0  0  0  0  0  0  0  0  0  0
   -1.9399    0.3411   -2.9938 H   0  0  0  0  0  0  0  0  0  0  0  0
   -2.7029   -0.4952   -1.6332 H   0  0  0  0  0  0  0  0  0  0  0  0
   -2.0806   -1.1975    0.4628 H   0  0  0  0  0  0  0  0  0  0  0  0
   -0.6806   -1.4204   -0.6578 H   0  0  0  0  0  0  0  0  0  0  0  0
   -0.0064   -2.5181    1.3590 H   0  0  0  0  0  0  0  0  0  0  0  0
   -0.6680   -1.2065    2.3947 H   0  0  0  0  0  0  0  0  0  0  0  0
    4.2007    0.7879   -1.4245 H   0  0  0  0  0  0  0  0  0  0  0  0
    3.7101   -0.8995   -1.7586 H   0  0  0  0  0  0  0  0  0  0  0  0
    5.6852    1.2553    0.6378 H   0  0  0  0  0  0  0  0  0  0  0  0
    7.7138    0.4780    1.8123 H   0  0  0  0  0  0  0  0  0  0  0  0
    7.1387   -3.4718    0.2218 H   0  0  0  0  0  0  0  0  0  0  0  0
    5.1096   -2.7118   -0.9586 H   0  0  0  0  0  0  0  0  0  0  0  0
    2.9736    1.8782    0.8126 H   0  0  0  0  0  0  0  0  0  0  0  0
    1.7887    1.6012   -0.5365 H   0  0  0  0  0  0  0  0  0  0  0  0
    1.5057    1.0889    2.4270 H   0  0  0  0  0  0  0  0  0  0  0  0
   -0.8201    1.3267    2.0518 H   0  0  0  0  0  0  0  0  0  0  0  0
   -0.1186    2.4166    0.8314 H   0  0  0  0  0  0  0  0  0  0  0  0
   -3.8246    2.5784   -0.4551 H   0  0  0  0  0  0  0  0  0  0  0  0
   -5.4138    2.2099   -1.1661 H   0  0  0  0  0  0  0  0  0  0  0  0
   -5.8849   -0.5284   -1.2728 H   0  0  0  0  0  0  0  0  0  0  0  0
   -3.8960   -0.2995    3.2656 H   0  0  0  0  0  0  0  0  0  0  0  0
   -3.4492    0.4982   -0.7827 H   0  0  0  0  0  0  0  0  0  0  0  0
   -0.0706   -1.4437    1.0022 H   0  0  0  0  0  0  0  0  0  0  0  0
    0.0193    1.0706   -0.7474 H   0  0  0  0  0  0  0  0  0  0  0  0
    3.6729    1.1459   -0.3406 H   0  0  0  0  0  0  0  0  0  0  0  0
  1  2  1  0
  2  3  1  0
  3  4  1  0
  4  5  2  0
  4  6  1  0
  6  7  1  0
  7  8  1  0
  8  9  1  0
  9 10  1  0
 10 11  2  0
 10 12  1  0
 12 13  1  0
 13 14  1  0
 14 15  2  0
 15 16  1  0
 16 17  2  0
 17 18  1  0
 17 19  1  0
 19 20  2  0
 12 21  1  0
 21 22  1  0
 22 23  1  0
  2 24  1  0
 24 25  1  0
 25 26  2  0
 26 27  1  0
 27 28  1  0
 27 29  2  0
 29 30  1  0
 29 31  1  0
 31 32  2  0
 32 33  1  0
 34 35  2  0
 35 36  1  0
 35 37  1  0
 37 38  2  0
 38 39  1  0
 39 40  2  0
 39 41  1  0
 23  6  1  0
 32 25  1  0
 22  9  1  0
 20 14  1  0
  1 42  1  0
  1 43  1  0
  2 44  1  6
  3 45  1  0
  3 46  1  0
  7 47  1  0
  7 48  1  0
  8 49  1  0
  8 50  1  0
 13 51  1  0
 13 52  1  0
 15 53  1  0
 16 54  1  0
 19 55  1  0
 20 56  1  0
 21 57  1  0
 21 58  1  0
 22 59  1  0
 23 60  1  0
 23 61  1  0
 24 62  1  0
 24 63  1  0
 26 64  1  0
 31 65  1  0
 36 66  1  0
 37 67  1  0
 38 68  1  0
 41 69  1  0
M  END
$$$$
