
     RDKit          3D

 51 54  0  0  0  0  0  0  0  0999 V2000
   -6.5659    0.2341    1.8188 C   0  0  0  0  0  0  0  0  0  0  0  0
   -5.9132    0.1583    0.5555 O   0  0  0  0  0  0  0  0  0  0  0  0
   -4.5277    0.2845    0.3659 C   0  0  0  0  0  0  0  0  0  0  0  0
   -3.6444    0.5070    1.4381 C   0  0  0  0  0  0  0  0  0  0  0  0
   -2.2640    0.6183    1.2198 C   0  0  0  0  0  0  0  0  0  0  0  0
   -1.7562    0.5328   -0.0930 C   0  0  0  0  0  0  0  0  0  0  0  0
   -2.6407    0.3144   -1.1612 C   0  0  0  0  0  0  0  0  0  0  0  0
   -4.0240    0.1877   -0.9384 C   0  0  0  0  0  0  0  0  0  0  0  0
   -4.9304   -0.0349   -1.9874 O   0  0  0  0  0  0  0  0  0  0  0  0
   -4.5649   -0.1583   -3.3582 C   0  0  0  0  0  0  0  0  0  0  0  0
   -0.2649    0.6101   -0.3633 C   0  0  2  0  0  0  0  0  0  0  0  0
    0.2907   -0.7913   -0.7079 C   0  0  0  0  0  0  0  0  0  0  0  0
    1.8075   -0.7369   -0.9617 C   0  0  2  0  0  0  0  0  0  0  0  0
    2.3422   -2.0796   -1.2072 N   0  0  0  0  0  0  0  0  0  0  0  0
    2.5273   -0.0849    0.2378 C   0  0  1  0  0  0  0  0  0  0  0  0
    4.0252    0.0263    0.0024 C   0  0  0  0  0  0  0  0  0  0  0  0
    4.5424    0.7791   -1.0706 C   0  0  0  0  0  0  0  0  0  0  0  0
    5.9225    0.8686   -1.2725 C   0  0  0  0  0  0  0  0  0  0  0  0
    6.8018    0.2113   -0.4099 C   0  0  0  0  0  0  0  0  0  0  0  0
    6.3029   -0.5384    0.6589 C   0  0  0  0  0  0  0  0  0  0  0  0
    7.4088   -1.3639    1.7419 Cl  0  0  0  0  0  0  0  0  0  0  0  0
    4.9219   -0.6310    0.8652 C   0  0  0  0  0  0  0  0  0  0  0  0
    1.9167    1.3003    0.5439 C   0  0  0  0  0  0  0  0  0  0  0  0
    0.4572    1.2402    0.7694 N   0  0  0  0  0  0  0  0  0  0  0  0
    0.1013    0.6514    2.0743 C   0  0  0  0  0  0  0  0  0  0  0  0
   -1.3645    0.9441    2.3843 C   0  0  0  0  0  0  0  0  0  0  0  0
   -6.1937   -0.5687    2.4899 H   0  0  0  0  0  0  0  0  0  0  0  0
   -7.6567    0.0964    1.6719 H   0  0  0  0  0  0  0  0  0  0  0  0
   -6.3926    1.2297    2.2792 H   0  0  0  0  0  0  0  0  0  0  0  0
   -4.0229    0.6016    2.4474 H   0  0  0  0  0  0  0  0  0  0  0  0
   -2.2409    0.2406   -2.1638 H   0  0  0  0  0  0  0  0  0  0  0  0
   -3.8805   -1.0221   -3.4947 H   0  0  0  0  0  0  0  0  0  0  0  0
   -5.4788   -0.3306   -3.9627 H   0  0  0  0  0  0  0  0  0  0  0  0
   -4.0777    0.7759   -3.7092 H   0  0  0  0  0  0  0  0  0  0  0  0
   -0.1253    1.2612   -1.2562 H   0  0  0  0  0  0  0  0  0  0  0  0
   -0.2087   -1.1686   -1.6271 H   0  0  0  0  0  0  0  0  0  0  0  0
    0.0627   -1.5115    0.1068 H   0  0  0  0  0  0  0  0  0  0  0  0
    1.9786   -0.1207   -1.8725 H   0  0  0  0  0  0  0  0  0  0  0  0
    2.1029   -2.7032   -0.4017 H   0  0  0  0  0  0  0  0  0  0  0  0
    1.8793   -2.4750   -2.0578 H   0  0  0  0  0  0  0  0  0  0  0  0
    2.3565   -0.7308    1.1270 H   0  0  0  0  0  0  0  0  0  0  0  0
    3.8816    1.2978   -1.7526 H   0  0  0  0  0  0  0  0  0  0  0  0
    6.3107    1.4490   -2.0995 H   0  0  0  0  0  0  0  0  0  0  0  0
    7.8695    0.2852   -0.5727 H   0  0  0  0  0  0  0  0  0  0  0  0
    4.5510   -1.2162    1.6976 H   0  0  0  0  0  0  0  0  0  0  0  0
    2.1099    1.9955   -0.3015 H   0  0  0  0  0  0  0  0  0  0  0  0
    2.4223    1.7434    1.4304 H   0  0  0  0  0  0  0  0  0  0  0  0
    0.2709   -0.4455    2.0911 H   0  0  0  0  0  0  0  0  0  0  0  0
    0.7185    1.1003    2.8834 H   0  0  0  0  0  0  0  0  0  0  0  0
   -1.4766    2.0237    2.6242 H   0  0  0  0  0  0  0  0  0  0  0  0
   -1.6678    0.3560    3.2780 H   0  0  0  0  0  0  0  0  0  0  0  0
  1  2  1  0
  2  3  1  0
  3  4  2  0
  4  5  1  0
  5  6  2  0
  6  7  1  0
  7  8  2  0
  8  9  1  0
  9 10  1  0
  6 11  1  0
 11 12  1  0
 12 13  1  0
 13 14  1  0
 13 15  1  0
 15 16  1  0
 16 17  2  0
 17 18  1  0
 18 19  2  0
 19 20  1  0
 20 21  1  0
 20 22  2  0
 15 23  1  0
 23 24  1  0
 24 25  1  0
 25 26  1  0
  8  3  1  0
 24 11  1  0
 26  5  1  0
 22 16  1  0
  1 27  1  0
  1 28  1  0
  1 29  1  0
  4 30  1  0
  7 31  1  0
 10 32  1  0
 10 33  1  0
 10 34  1  0
 11 35  1  6
 12 36  1  0
 12 37  1  0
 13 38  1  6
 14 39  1  0
 14 40  1  0
 15 41  1  1
 17 42  1  0
 18 43  1  0
 19 44  1  0
 22 45  1  0
 23 46  1  0
 23 47  1  0
 25 48  1  0
 25 49  1  0
 26 50  1  0
 26 51  1  0
M  END
$$$$
