
     RDKit          3D

 63 65  0  0  0  0  0  0  0  0999 V2000
   -0.4549    1.4879    3.6246 C   0  0  0  0  0  0  0  0  0  0  0  0
   -1.1522    1.9093    2.4101 C   0  0  0  0  0  0  0  0  0  0  0  0
   -1.7243    2.2514    1.4062 C   0  0  0  0  0  0  0  0  0  0  0  0
   -2.4144    2.6553    0.1761 C   0  0  0  0  0  0  0  0  0  0  0  0
   -2.0687    1.7307   -0.9214 N   0  0  0  0  0  0  0  0  0  0  0  0
   -2.8796    0.6641   -1.2188 C   0  0  0  0  0  0  0  0  0  0  0  0
   -4.0733    0.3971   -0.4664 N   0  0  0  0  0  0  0  0  0  0  0  0
   -5.3770    0.7378   -1.0481 C   0  0  0  0  0  0  0  0  0  0  0  0
   -6.5258    0.2800   -0.1430 C   0  0  0  0  0  0  0  0  0  0  0  0
   -6.3093   -1.1751    0.2885 C   0  0  0  0  0  0  0  0  0  0  0  0
   -4.9492   -1.4021    1.0033 C   0  0  1  0  0  0  0  0  0  0  0  0
   -4.3285   -2.6335    0.5072 N   0  0  0  0  0  0  0  0  0  0  0  0
   -3.9802   -0.2029    0.8693 C   0  0  0  0  0  0  0  0  0  0  0  0
   -2.5424   -0.1988   -2.2561 C   0  0  0  0  0  0  0  0  0  0  0  0
   -1.3619    0.0081   -2.9557 C   0  0  0  0  0  0  0  0  0  0  0  0
   -1.0570   -0.7906   -3.8837 O   0  0  0  0  0  0  0  0  0  0  0  0
   -0.5416    1.0566   -2.6334 N   0  0  0  0  0  0  0  0  0  0  0  0
    0.7516    1.2149   -3.3311 C   0  0  0  0  0  0  0  0  0  0  0  0
    1.7889    0.3079   -2.7188 C   0  0  0  0  0  0  0  0  0  0  0  0
    2.1488   -0.8902   -3.3537 C   0  0  0  0  0  0  0  0  0  0  0  0
    3.0739   -1.7504   -2.7598 C   0  0  0  0  0  0  0  0  0  0  0  0
    3.6464   -1.4267   -1.5274 C   0  0  0  0  0  0  0  0  0  0  0  0
    3.3036   -0.2280   -0.8764 C   0  0  0  0  0  0  0  0  0  0  0  0
    3.8852    0.1217    0.4424 C   0  0  0  0  0  0  0  0  0  0  0  0
    3.2526    0.8979    1.2106 O   0  0  0  0  0  0  0  0  0  0  0  0
    5.1606   -0.3949    0.8535 N   0  0  0  0  0  0  0  0  0  0  0  0
    5.6623   -0.1804    2.2101 C   0  0  0  0  0  0  0  0  0  0  0  0
    6.9873   -0.8496    2.3940 C   0  0  0  0  0  0  0  0  0  0  0  0
    8.0500   -0.2054    2.1778 O   0  0  0  0  0  0  0  0  0  0  0  0
    7.0314   -2.1986    2.7570 O   0  0  0  0  0  0  0  0  0  0  0  0
    8.2535   -2.9074    2.9224 C   0  0  0  0  0  0  0  0  0  0  0  0
    2.3666    0.6304   -1.4799 C   0  0  0  0  0  0  0  0  0  0  0  0
   -0.8987    1.9153   -1.6204 C   0  0  0  0  0  0  0  0  0  0  0  0
   -0.1418    2.8831   -1.3231 O   0  0  0  0  0  0  0  0  0  0  0  0
   -0.4542    2.3198    4.3586 H   0  0  0  0  0  0  0  0  0  0  0  0
   -0.9722    0.6090    4.0614 H   0  0  0  0  0  0  0  0  0  0  0  0
    0.5909    1.2144    3.3739 H   0  0  0  0  0  0  0  0  0  0  0  0
   -3.5081    2.6851    0.3606 H   0  0  0  0  0  0  0  0  0  0  0  0
   -2.1225    3.6965   -0.0791 H   0  0  0  0  0  0  0  0  0  0  0  0
   -5.4418    1.8365   -1.2008 H   0  0  0  0  0  0  0  0  0  0  0  0
   -5.4790    0.2410   -2.0375 H   0  0  0  0  0  0  0  0  0  0  0  0
   -6.5816    0.9330    0.7553 H   0  0  0  0  0  0  0  0  0  0  0  0
   -7.4885    0.3687   -0.6912 H   0  0  0  0  0  0  0  0  0  0  0  0
   -6.3834   -1.8174   -0.6174 H   0  0  0  0  0  0  0  0  0  0  0  0
   -7.1384   -1.4776    0.9646 H   0  0  0  0  0  0  0  0  0  0  0  0
   -5.1545   -1.5381    2.0892 H   0  0  0  0  0  0  0  0  0  0  0  0
   -3.5004   -2.8590    1.1053 H   0  0  0  0  0  0  0  0  0  0  0  0
   -3.9771   -2.4743   -0.4654 H   0  0  0  0  0  0  0  0  0  0  0  0
   -4.2497    0.5668    1.6246 H   0  0  0  0  0  0  0  0  0  0  0  0
   -2.9369   -0.5219    1.0883 H   0  0  0  0  0  0  0  0  0  0  0  0
   -3.1838   -1.0376   -2.5000 H   0  0  0  0  0  0  0  0  0  0  0  0
    1.1101    2.2664   -3.2914 H   0  0  0  0  0  0  0  0  0  0  0  0
    0.6321    0.9988   -4.4160 H   0  0  0  0  0  0  0  0  0  0  0  0
    1.7087   -1.1632   -4.3046 H   0  0  0  0  0  0  0  0  0  0  0  0
    3.3395   -2.6778   -3.2508 H   0  0  0  0  0  0  0  0  0  0  0  0
    4.3333   -2.1307   -1.0774 H   0  0  0  0  0  0  0  0  0  0  0  0
    5.7647   -0.8851    0.1556 H   0  0  0  0  0  0  0  0  0  0  0  0
    5.7631    0.9098    2.4026 H   0  0  0  0  0  0  0  0  0  0  0  0
    4.9406   -0.6019    2.9422 H   0  0  0  0  0  0  0  0  0  0  0  0
    8.8231   -2.9104    1.9689 H   0  0  0  0  0  0  0  0  0  0  0  0
    8.0311   -3.9549    3.2116 H   0  0  0  0  0  0  0  0  0  0  0  0
    8.8621   -2.4345    3.7220 H   0  0  0  0  0  0  0  0  0  0  0  0
    2.0910    1.5548   -0.9889 H   0  0  0  0  0  0  0  0  0  0  0  0
  1  2  1  0
  2  3  3  0
  3  4  1  0
  4  5  1  0
  5  6  1  0
  6  7  1  0
  7  8  1  0
  8  9  1  0
  9 10  1  0
 10 11  1  0
 11 12  1  0
 11 13  1  0
  6 14  2  0
 14 15  1  0
 15 16  2  0
 15 17  1  0
 17 18  1  0
 18 19  1  0
 19 20  2  0
 20 21  1  0
 21 22  2  0
 22 23  1  0
 23 24  1  0
 24 25  2  0
 24 26  1  0
 26 27  1  0
 27 28  1  0
 28 29  2  0
 28 30  1  0
 30 31  1  0
 23 32  2  0
 17 33  1  0
 33 34  2  0
 33  5  1  0
 13  7  1  0
 32 19  1  0
  1 35  1  0
  1 36  1  0
  1 37  1  0
  4 38  1  0
  4 39  1  0
  8 40  1  0
  8 41  1  0
  9 42  1  0
  9 43  1  0
 10 44  1  0
 10 45  1  0
 11 46  1  1
 12 47  1  0
 12 48  1  0
 13 49  1  0
 13 50  1  0
 14 51  1  0
 18 52  1  0
 18 53  1  0
 20 54  1  0
 21 55  1  0
 22 56  1  0
 26 57  1  0
 27 58  1  0
 27 59  1  0
 31 60  1  0
 31 61  1  0
 31 62  1  0
 32 63  1  0
M  END
$$$$
