
     RDKit          3D

 68 70  0  0  0  0  0  0  0  0999 V2000
    1.6457    1.1433    4.3648 C   0  0  0  0  0  0  0  0  0  0  0  0
    2.3893    1.2923    3.0690 C   0  0  0  0  0  0  0  0  0  0  0  0
    3.6703    1.7606    3.1130 N   0  0  0  0  0  0  0  0  0  0  0  0
    4.3570    1.9219    1.9609 C   0  0  0  0  0  0  0  0  0  0  0  0
    5.6388    2.3878    1.8027 C   0  0  0  0  0  0  0  0  0  0  0  0
    5.8202    2.3460    0.4170 C   0  0  0  0  0  0  0  0  0  0  0  0
    7.0394    2.7425   -0.3289 C   0  0  0  0  0  0  0  0  0  0  0  0
    7.0674    2.6405   -1.7328 C   0  0  0  0  0  0  0  0  0  0  0  0
    8.2098    3.0106   -2.4488 C   0  0  0  0  0  0  0  0  0  0  0  0
    9.3361    3.4861   -1.7746 C   0  0  0  0  0  0  0  0  0  0  0  0
    9.3222    3.5924   -0.3825 C   0  0  0  0  0  0  0  0  0  0  0  0
    8.1825    3.2237    0.3393 C   0  0  0  0  0  0  0  0  0  0  0  0
    4.6973    1.8782   -0.1841 N   0  0  0  0  0  0  0  0  0  0  0  0
    3.8218    1.6275    0.7748 N   0  0  0  0  0  0  0  0  0  0  0  0
    2.5613    1.1360    0.6358 C   0  0  0  0  0  0  0  0  0  0  0  0
    2.0282    0.8013   -0.7332 C   0  0  0  0  0  0  0  0  0  0  0  0
    1.7872    0.9694    1.8161 C   0  0  0  0  0  0  0  0  0  0  0  0
    0.3899    0.4821    1.7573 C   0  0  0  0  0  0  0  0  0  0  0  0
    0.0624   -0.5392    2.4201 O   0  0  0  0  0  0  0  0  0  0  0  0
   -0.5935    1.1908    0.9878 N   0  0  0  0  0  0  0  0  0  0  0  0
   -2.0196    0.8529    1.0129 C   0  0  0  0  0  0  0  0  0  0  0  0
   -2.4288   -0.0886   -0.1614 C   0  0  0  0  0  0  0  0  0  0  0  0
   -2.0097    0.5531   -1.5013 C   0  0  0  0  0  0  0  0  0  0  0  0
   -1.7241   -1.4604   -0.0522 C   0  0  0  0  0  0  0  0  0  0  0  0
   -3.9040   -0.2549   -0.2103 N   0  0  0  0  0  0  0  0  0  0  0  0
   -4.5159   -1.0436    0.8753 C   0  0  0  0  0  0  0  0  0  0  0  0
   -4.7909   -2.4421    0.4018 C   0  0  0  0  0  0  0  0  0  0  0  0
   -4.1706   -3.4005    0.9373 O   0  0  0  0  0  0  0  0  0  0  0  0
   -5.7344   -2.7050   -0.6545 N   0  0  0  0  0  0  0  0  0  0  0  0
   -6.6437   -1.7091   -1.2010 C   0  0  0  0  0  0  0  0  0  0  0  0
   -7.4306   -2.4231   -2.2926 C   0  0  0  0  0  0  0  0  0  0  0  0
   -7.2374   -3.9153   -2.0366 C   0  0  0  0  0  0  0  0  0  0  0  0
   -5.9577   -4.0320   -1.2086 C   0  0  1  0  0  0  0  0  0  0  0  0
   -4.8125   -4.4206   -2.0479 C   0  0  0  0  0  0  0  0  0  0  0  0
   -3.9111   -4.7248   -2.7069 N   0  0  0  0  0  0  0  0  0  0  0  0
    0.6878    0.0000    0.0000 Cl  0  0  0  0  0  0  0  0  0  0  0  0
    1.5110    0.0669    4.5991 H   0  0  0  0  0  0  0  0  0  0  0  0
    2.2128    1.6148    5.1954 H   0  0  0  0  0  0  0  0  0  0  0  0
    0.6542    1.6389    4.2986 H   0  0  0  0  0  0  0  0  0  0  0  0
    6.3241    2.7062    2.5760 H   0  0  0  0  0  0  0  0  0  0  0  0
    6.2068    2.2747   -2.2787 H   0  0  0  0  0  0  0  0  0  0  0  0
    8.2214    2.9285   -3.5281 H   0  0  0  0  0  0  0  0  0  0  0  0
   10.2195    3.7721   -2.3307 H   0  0  0  0  0  0  0  0  0  0  0  0
   10.1961    3.9612    0.1390 H   0  0  0  0  0  0  0  0  0  0  0  0
    8.2036    3.3179    1.4160 H   0  0  0  0  0  0  0  0  0  0  0  0
    1.4466    1.6594   -1.1278 H   0  0  0  0  0  0  0  0  0  0  0  0
    2.8567    0.5818   -1.4380 H   0  0  0  0  0  0  0  0  0  0  0  0
    1.3869   -0.1021   -0.6951 H   0  0  0  0  0  0  0  0  0  0  0  0
   -0.3122    2.0779    0.5127 H   0  0  0  0  0  0  0  0  0  0  0  0
   -2.2778    0.4154    1.9986 H   0  0  0  0  0  0  0  0  0  0  0  0
   -2.6008    1.7978    0.9360 H   0  0  0  0  0  0  0  0  0  0  0  0
   -0.9067    0.6455   -1.5833 H   0  0  0  0  0  0  0  0  0  0  0  0
   -2.3659   -0.0673   -2.3521 H   0  0  0  0  0  0  0  0  0  0  0  0
   -2.4533    1.5668   -1.6042 H   0  0  0  0  0  0  0  0  0  0  0  0
   -2.1238   -2.1605   -0.8172 H   0  0  0  0  0  0  0  0  0  0  0  0
   -0.6317   -1.3634   -0.2197 H   0  0  0  0  0  0  0  0  0  0  0  0
   -1.8677   -1.9102    0.9516 H   0  0  0  0  0  0  0  0  0  0  0  0
   -4.3569    0.6900   -0.2301 H   0  0  0  0  0  0  0  0  0  0  0  0
   -5.4839   -0.5851    1.1746 H   0  0  0  0  0  0  0  0  0  0  0  0
   -3.8915   -1.0669    1.7910 H   0  0  0  0  0  0  0  0  0  0  0  0
   -6.0792   -0.8554   -1.6320 H   0  0  0  0  0  0  0  0  0  0  0  0
   -7.3284   -1.3497   -0.4027 H   0  0  0  0  0  0  0  0  0  0  0  0
   -7.0085   -2.1624   -3.2882 H   0  0  0  0  0  0  0  0  0  0  0  0
   -8.5062   -2.1433   -2.2672 H   0  0  0  0  0  0  0  0  0  0  0  0
   -7.1983   -4.4885   -2.9899 H   0  0  0  0  0  0  0  0  0  0  0  0
   -8.0949   -4.2925   -1.4366 H   0  0  0  0  0  0  0  0  0  0  0  0
   -6.0940   -4.7772   -0.3947 H   0  0  0  0  0  0  0  0  0  0  0  0
   -0.6878    0.0000    0.0000 H   0  0  0  0  0  0  0  0  0  0  0  0
  1  2  1  0
  2  3  2  0
  3  4  1  0
  4  5  2  0
  5  6  1  0
  6  7  1  0
  7  8  2  0
  8  9  1  0
  9 10  2  0
 10 11  1  0
 11 12  2  0
  6 13  2  0
 13 14  1  0
 14 15  1  0
 15 16  1  0
 15 17  2  0
 17 18  1  0
 18 19  2  0
 18 20  1  0
 20 21  1  0
 21 22  1  0
 22 23  1  0
 22 24  1  0
 22 25  1  0
 25 26  1  0
 26 27  1  0
 27 28  2  0
 27 29  1  0
 29 30  1  0
 30 31  1  0
 31 32  1  0
 32 33  1  0
 33 34  1  0
 34 35  3  0
 17  2  1  0
 33 29  1  0
 14  4  1  0
 12  7  1  0
  1 37  1  0
  1 38  1  0
  1 39  1  0
  5 40  1  0
  8 41  1  0
  9 42  1  0
 10 43  1  0
 11 44  1  0
 12 45  1  0
 16 46  1  0
 16 47  1  0
 16 48  1  0
 20 49  1  0
 21 50  1  0
 21 51  1  0
 23 52  1  0
 23 53  1  0
 23 54  1  0
 24 55  1  0
 24 56  1  0
 24 57  1  0
 25 58  1  0
 26 59  1  0
 26 60  1  0
 30 61  1  0
 30 62  1  0
 31 63  1  0
 31 64  1  0
 32 65  1  0
 32 66  1  0
 33 67  1  1
 36 68  1  0
M  END
$$$$
