
     RDKit          3D

 37 38  0  0  0  0  0  0  0  0999 V2000
   -3.0504   -1.1916    1.7798 C   0  0  0  0  0  0  0  0  0  0  0  0
   -2.1107   -0.7785    0.6456 C   0  0  0  0  0  0  0  0  0  0  0  0
   -2.7178    0.3181   -0.2683 C   0  0  2  0  0  0  0  0  0  0  0  0
   -3.9400   -0.2060   -1.0442 C   0  0  0  0  0  0  0  0  0  0  0  0
   -1.6837    0.9656   -1.2431 C   0  0  2  0  0  0  0  0  0  0  0  0
   -1.2216    0.0625   -2.3050 N   0  0  0  0  0  0  0  0  0  0  0  0
   -0.5326    1.6304   -0.5074 C   0  0  0  0  0  0  0  0  0  0  0  0
   -0.7206    2.8030   -0.0813 O   0  0  0  0  0  0  0  0  0  0  0  0
    0.7231    0.9818   -0.2057 N   0  0  0  0  0  0  0  0  0  0  0  0
    1.7043    1.5880    0.7002 C   0  0  0  0  0  0  0  0  0  0  0  0
    2.8232    0.6178    0.6954 C   0  0  0  0  0  0  0  0  0  0  0  0
    4.0266    0.6931    1.3990 C   0  0  0  0  0  0  0  0  0  0  0  0
    4.9582   -0.3467    1.2474 C   0  0  0  0  0  0  0  0  0  0  0  0
    4.6738   -1.4360    0.4015 C   0  0  0  0  0  0  0  0  0  0  0  0
    3.4561   -1.4893   -0.2963 C   0  0  0  0  0  0  0  0  0  0  0  0
    3.1737   -2.5345   -1.1127 F   0  0  0  0  0  0  0  0  0  0  0  0
    2.5446   -0.4440   -0.1304 C   0  0  0  0  0  0  0  0  0  0  0  0
    1.2105   -0.2879   -0.7572 C   0  0  0  0  0  0  0  0  0  0  0  0
   -3.9318   -1.7367    1.3836 H   0  0  0  0  0  0  0  0  0  0  0  0
   -3.3890   -0.3009    2.3506 H   0  0  0  0  0  0  0  0  0  0  0  0
   -2.5131   -1.8708    2.4749 H   0  0  0  0  0  0  0  0  0  0  0  0
   -1.1834   -0.3979    1.1209 H   0  0  0  0  0  0  0  0  0  0  0  0
   -1.8499   -1.6838    0.0582 H   0  0  0  0  0  0  0  0  0  0  0  0
   -3.0836    1.1377    0.3912 H   0  0  0  0  0  0  0  0  0  0  0  0
   -3.6848   -1.1256   -1.6123 H   0  0  0  0  0  0  0  0  0  0  0  0
   -4.3070    0.5637   -1.7560 H   0  0  0  0  0  0  0  0  0  0  0  0
   -4.7749   -0.4344   -0.3501 H   0  0  0  0  0  0  0  0  0  0  0  0
   -2.2212    1.8033   -1.7475 H   0  0  0  0  0  0  0  0  0  0  0  0
   -1.2003   -0.9256   -1.9717 H   0  0  0  0  0  0  0  0  0  0  0  0
   -1.9087    0.0883   -3.0935 H   0  0  0  0  0  0  0  0  0  0  0  0
    1.2787    1.6866    1.7217 H   0  0  0  0  0  0  0  0  0  0  0  0
    2.0417    2.5709    0.3074 H   0  0  0  0  0  0  0  0  0  0  0  0
    4.2378    1.5337    2.0473 H   0  0  0  0  0  0  0  0  0  0  0  0
    5.8981   -0.3106    1.7827 H   0  0  0  0  0  0  0  0  0  0  0  0
    5.3963   -2.2340    0.2894 H   0  0  0  0  0  0  0  0  0  0  0  0
    1.3209   -0.2197   -1.8599 H   0  0  0  0  0  0  0  0  0  0  0  0
    0.5573   -1.1304   -0.4540 H   0  0  0  0  0  0  0  0  0  0  0  0
  1  2  1  0
  2  3  1  0
  3  4  1  0
  3  5  1  0
  5  6  1  0
  5  7  1  0
  7  8  2  0
  7  9  1  0
  9 10  1  0
 10 11  1  0
 11 12  2  0
 12 13  1  0
 13 14  2  0
 14 15  1  0
 15 16  1  0
 15 17  2  0
 17 18  1  0
 18  9  1  0
 17 11  1  0
  1 19  1  0
  1 20  1  0
  1 21  1  0
  2 22  1  0
  2 23  1  0
  3 24  1  1
  4 25  1  0
  4 26  1  0
  4 27  1  0
  5 28  1  6
  6 29  1  0
  6 30  1  0
 10 31  1  0
 10 32  1  0
 12 33  1  0
 13 34  1  0
 14 35  1  0
 18 36  1  0
 18 37  1  0
M  END
$$$$
