
     RDKit          3D

 54 55  0  0  0  0  0  0  0  0999 V2000
    5.0971    2.3922   -1.5512 C   0  0  0  0  0  0  0  0  0  0  0  0
    4.3970    1.4843   -0.5843 C   0  0  0  0  0  0  0  0  0  0  0  0
    5.0465    0.3434   -0.0884 C   0  0  0  0  0  0  0  0  0  0  0  0
    4.3799   -0.5256    0.7802 C   0  0  0  0  0  0  0  0  0  0  0  0
    3.0530   -0.2705    1.1520 C   0  0  0  0  0  0  0  0  0  0  0  0
    2.1928   -1.3862    2.2131 S   0  0  0  0  0  0  0  0  0  0  0  0
    1.2870   -0.5982    3.1174 O   0  0  0  0  0  0  0  0  0  0  0  0
    3.1784   -2.1261    3.0749 O   0  0  0  0  0  0  0  0  0  0  0  0
    1.2462   -2.5294    1.2881 N   0  0  0  0  0  0  0  0  0  0  0  0
    2.1197   -3.3825    0.4689 C   0  0  0  0  0  0  0  0  0  0  0  0
    2.1155   -2.8371   -0.9570 C   0  0  0  0  0  0  0  0  0  0  0  0
    0.9011   -1.9380   -1.0189 C   0  0  0  0  0  0  0  0  0  0  0  0
    0.4737   -1.8063    0.3629 N   0  0  0  0  0  0  0  0  0  0  0  0
   -0.7699   -1.1934    0.7529 C   0  0  0  0  0  0  0  0  0  0  0  0
   -1.2297   -1.4068    1.9073 O   0  0  0  0  0  0  0  0  0  0  0  0
   -1.5415   -0.2914   -0.1748 C   0  0  0  0  0  0  0  0  0  0  0  0
   -2.8978   -0.9059   -0.5894 C   0  0  2  0  0  0  0  0  0  0  0  0
   -2.6814   -2.1461   -1.3416 N   0  0  0  0  0  0  0  0  0  0  0  0
   -3.7080    0.0828   -1.4583 C   0  0  0  0  0  0  0  0  0  0  0  0
   -4.1296    1.3130   -0.6906 C   0  0  0  0  0  0  0  0  0  0  0  0
   -3.4308    2.5217   -0.8554 C   0  0  0  0  0  0  0  0  0  0  0  0
   -3.8028    3.6577   -0.1301 C   0  0  0  0  0  0  0  0  0  0  0  0
   -3.1204    4.8179   -0.2952 F   0  0  0  0  0  0  0  0  0  0  0  0
   -4.8743    3.5966    0.7657 C   0  0  0  0  0  0  0  0  0  0  0  0
   -5.2356    4.6975    1.4702 F   0  0  0  0  0  0  0  0  0  0  0  0
   -5.5737    2.3989    0.9375 C   0  0  0  0  0  0  0  0  0  0  0  0
   -5.2054    1.2590    0.2155 C   0  0  0  0  0  0  0  0  0  0  0  0
   -5.8973    0.1057    0.3984 F   0  0  0  0  0  0  0  0  0  0  0  0
    2.3980    0.8603    0.6457 C   0  0  0  0  0  0  0  0  0  0  0  0
    3.0633    1.7291   -0.2236 C   0  0  0  0  0  0  0  0  0  0  0  0
    0.6878    0.0000    0.0000 Cl  0  0  0  0  0  0  0  0  0  0  0  0
    6.1906    2.4043   -1.3558 H   0  0  0  0  0  0  0  0  0  0  0  0
    4.7198    3.4326   -1.4550 H   0  0  0  0  0  0  0  0  0  0  0  0
    4.9181    2.0362   -2.5872 H   0  0  0  0  0  0  0  0  0  0  0  0
    6.0673    0.1248   -0.3769 H   0  0  0  0  0  0  0  0  0  0  0  0
    4.8939   -1.4038    1.1490 H   0  0  0  0  0  0  0  0  0  0  0  0
    3.1569   -3.4573    0.8631 H   0  0  0  0  0  0  0  0  0  0  0  0
    1.6941   -4.4090    0.4640 H   0  0  0  0  0  0  0  0  0  0  0  0
    3.0384   -2.2455   -1.1406 H   0  0  0  0  0  0  0  0  0  0  0  0
    2.0524   -3.6585   -1.7037 H   0  0  0  0  0  0  0  0  0  0  0  0
    1.1713   -0.9461   -1.4406 H   0  0  0  0  0  0  0  0  0  0  0  0
    0.0997   -2.4124   -1.6245 H   0  0  0  0  0  0  0  0  0  0  0  0
   -0.9508   -0.0412   -1.0795 H   0  0  0  0  0  0  0  0  0  0  0  0
   -1.7121    0.6617    0.3686 H   0  0  0  0  0  0  0  0  0  0  0  0
   -3.4867   -1.1388    0.3276 H   0  0  0  0  0  0  0  0  0  0  0  0
   -3.6120   -2.5373   -1.6162 H   0  0  0  0  0  0  0  0  0  0  0  0
   -2.2655   -2.8593   -0.6998 H   0  0  0  0  0  0  0  0  0  0  0  0
   -4.6233   -0.4205   -1.8397 H   0  0  0  0  0  0  0  0  0  0  0  0
   -3.1122    0.3674   -2.3538 H   0  0  0  0  0  0  0  0  0  0  0  0
   -2.5938    2.5812   -1.5402 H   0  0  0  0  0  0  0  0  0  0  0  0
   -6.4024    2.3532    1.6326 H   0  0  0  0  0  0  0  0  0  0  0  0
    1.3680    1.0614    0.9115 H   0  0  0  0  0  0  0  0  0  0  0  0
    2.5377    2.5904   -0.6172 H   0  0  0  0  0  0  0  0  0  0  0  0
   -0.6878    0.0000    0.0000 H   0  0  0  0  0  0  0  0  0  0  0  0
  1  2  1  0
  2  3  2  0
  3  4  1  0
  4  5  2  0
  5  6  1  0
  6  7  2  0
  6  8  2  0
  6  9  1  0
  9 10  1  0
 10 11  1  0
 11 12  1  0
 12 13  1  0
 13 14  1  0
 14 15  2  0
 14 16  1  0
 16 17  1  0
 17 18  1  0
 17 19  1  0
 19 20  1  0
 20 21  2  0
 21 22  1  0
 22 23  1  0
 22 24  2  0
 24 25  1  0
 24 26  1  0
 26 27  2  0
 27 28  1  0
  5 29  1  0
 29 30  2  0
 30  2  1  0
 13  9  1  0
 27 20  1  0
  1 32  1  0
  1 33  1  0
  1 34  1  0
  3 35  1  0
  4 36  1  0
 10 37  1  0
 10 38  1  0
 11 39  1  0
 11 40  1  0
 12 41  1  0
 12 42  1  0
 16 43  1  0
 16 44  1  0
 17 45  1  1
 18 46  1  0
 18 47  1  0
 19 48  1  0
 19 49  1  0
 21 50  1  0
 26 51  1  0
 29 52  1  0
 30 53  1  0
 31 54  1  0
M  END
$$$$
