
     RDKit          3D

 57 60  0  0  0  0  0  0  0  0999 V2000
   -6.7777   -1.6460   -3.3493 C   0  0  0  0  0  0  0  0  0  0  0  0
   -6.4114   -1.0125   -2.1277 O   0  0  0  0  0  0  0  0  0  0  0  0
   -5.0919   -0.8676   -1.6697 C   0  0  0  0  0  0  0  0  0  0  0  0
   -3.9923   -1.3583   -2.3938 C   0  0  0  0  0  0  0  0  0  0  0  0
   -2.6863   -1.1985   -1.9108 C   0  0  0  0  0  0  0  0  0  0  0  0
   -2.4565   -0.4738   -0.7190 C   0  0  0  0  0  0  0  0  0  0  0  0
   -3.5685   -0.0466    0.0326 C   0  0  0  0  0  0  0  0  0  0  0  0
   -4.8804   -0.2230   -0.4451 C   0  0  0  0  0  0  0  0  0  0  0  0
   -6.0020    0.2252    0.2716 O   0  0  0  0  0  0  0  0  0  0  0  0
   -5.9454    0.9007    1.5240 C   0  0  0  0  0  0  0  0  0  0  0  0
   -1.0358   -0.3045   -0.1731 C   0  0  2  0  0  0  0  0  0  0  0  0
   -0.7775    1.1411    0.3228 C   0  0  0  0  0  0  0  0  0  0  0  0
    0.6464    1.2887    0.9031 C   0  0  1  0  0  0  0  0  0  0  0  0
    0.7645    0.5444    2.1633 N   0  0  0  0  0  0  0  0  0  0  0  0
    1.6807    0.7992   -0.1383 C   0  0  1  0  0  0  0  0  0  0  0  0
    3.1172    0.9559    0.3432 C   0  0  0  0  0  0  0  0  0  0  0  0
    3.8159    2.1328    0.0332 C   0  0  0  0  0  0  0  0  0  0  0  0
    5.1253    2.3224    0.4752 C   0  0  0  0  0  0  0  0  0  0  0  0
    5.7685    1.3439    1.2479 C   0  0  0  0  0  0  0  0  0  0  0  0
    7.1805    1.5831    1.7151 C   0  0  0  0  0  0  0  0  0  0  0  0
    5.0677    0.1663    1.5972 C   0  0  0  0  0  0  0  0  0  0  0  0
    5.7116   -0.9026    2.4418 C   0  0  0  0  0  0  0  0  0  0  0  0
    3.7509   -0.0168    1.1404 C   0  0  0  0  0  0  0  0  0  0  0  0
    1.3394   -0.6261   -0.6156 C   0  0  0  0  0  0  0  0  0  0  0  0
   -0.0148   -0.6332   -1.2016 N   0  0  0  0  0  0  0  0  0  0  0  0
   -0.2993   -1.9287   -1.8348 C   0  0  0  0  0  0  0  0  0  0  0  0
   -1.5459   -1.7849   -2.6989 C   0  0  0  0  0  0  0  0  0  0  0  0
   -7.8810   -1.6115   -3.4586 H   0  0  0  0  0  0  0  0  0  0  0  0
   -6.4549   -2.7085   -3.3402 H   0  0  0  0  0  0  0  0  0  0  0  0
   -6.3186   -1.1131   -4.2086 H   0  0  0  0  0  0  0  0  0  0  0  0
   -4.1437   -1.8806   -3.3293 H   0  0  0  0  0  0  0  0  0  0  0  0
   -3.4174    0.4073    0.9991 H   0  0  0  0  0  0  0  0  0  0  0  0
   -5.4781    0.2466    2.2901 H   0  0  0  0  0  0  0  0  0  0  0  0
   -6.9767    1.1468    1.8496 H   0  0  0  0  0  0  0  0  0  0  0  0
   -5.3698    1.8451    1.4232 H   0  0  0  0  0  0  0  0  0  0  0  0
   -0.9404   -1.0011    0.6918 H   0  0  0  0  0  0  0  0  0  0  0  0
   -1.5027    1.4449    1.1037 H   0  0  0  0  0  0  0  0  0  0  0  0
   -0.8998    1.8453   -0.5299 H   0  0  0  0  0  0  0  0  0  0  0  0
    0.8244    2.3704    1.1037 H   0  0  0  0  0  0  0  0  0  0  0  0
    1.6329    0.8591    2.6525 H   0  0  0  0  0  0  0  0  0  0  0  0
   -0.0182    0.8268    2.7969 H   0  0  0  0  0  0  0  0  0  0  0  0
    1.5633    1.4489   -1.0366 H   0  0  0  0  0  0  0  0  0  0  0  0
    3.3455    2.9110   -0.5552 H   0  0  0  0  0  0  0  0  0  0  0  0
    5.6370    3.2402    0.2129 H   0  0  0  0  0  0  0  0  0  0  0  0
    7.8286    0.7314    1.4205 H   0  0  0  0  0  0  0  0  0  0  0  0
    7.6093    2.5053    1.2682 H   0  0  0  0  0  0  0  0  0  0  0  0
    7.1957    1.6931    2.8196 H   0  0  0  0  0  0  0  0  0  0  0  0
    6.0786   -0.4652    3.3937 H   0  0  0  0  0  0  0  0  0  0  0  0
    4.9960   -1.7136    2.6952 H   0  0  0  0  0  0  0  0  0  0  0  0
    6.5632   -1.3531    1.8906 H   0  0  0  0  0  0  0  0  0  0  0  0
    3.2188   -0.9138    1.4241 H   0  0  0  0  0  0  0  0  0  0  0  0
    1.3955   -1.3598    0.2185 H   0  0  0  0  0  0  0  0  0  0  0  0
    2.0882   -0.9183   -1.3856 H   0  0  0  0  0  0  0  0  0  0  0  0
   -0.4486   -2.7237   -1.0683 H   0  0  0  0  0  0  0  0  0  0  0  0
    0.5402   -2.2370   -2.4971 H   0  0  0  0  0  0  0  0  0  0  0  0
   -1.3245   -1.1173   -3.5597 H   0  0  0  0  0  0  0  0  0  0  0  0
   -1.8260   -2.7862   -3.0934 H   0  0  0  0  0  0  0  0  0  0  0  0
  1  2  1  0
  2  3  1  0
  3  4  2  0
  4  5  1  0
  5  6  2  0
  6  7  1  0
  7  8  2  0
  8  9  1  0
  9 10  1  0
  6 11  1  0
 11 12  1  0
 12 13  1  0
 13 14  1  0
 13 15  1  0
 15 16  1  0
 16 17  2  0
 17 18  1  0
 18 19  2  0
 19 20  1  0
 19 21  1  0
 21 22  1  0
 21 23  2  0
 15 24  1  0
 24 25  1  0
 25 26  1  0
 26 27  1  0
  8  3  1  0
 25 11  1  0
 27  5  1  0
 23 16  1  0
  1 28  1  0
  1 29  1  0
  1 30  1  0
  4 31  1  0
  7 32  1  0
 10 33  1  0
 10 34  1  0
 10 35  1  0
 11 36  1  1
 12 37  1  0
 12 38  1  0
 13 39  1  1
 14 40  1  0
 14 41  1  0
 15 42  1  6
 17 43  1  0
 18 44  1  0
 20 45  1  0
 20 46  1  0
 20 47  1  0
 22 48  1  0
 22 49  1  0
 22 50  1  0
 23 51  1  0
 24 52  1  0
 24 53  1  0
 26 54  1  0
 26 55  1  0
 27 56  1  0
 27 57  1  0
M  END
$$$$
