
     RDKit          3D

 44 46  0  0  0  0  0  0  0  0999 V2000
   -0.7313    2.2397    1.6621 N   0  0  0  0  0  0  0  0  0  0  0  0
   -1.2425    0.8684    1.5525 C   0  0  2  0  0  0  0  0  0  0  0  0
   -0.1366   -0.1079    1.8939 C   0  0  0  0  0  0  0  0  0  0  0  0
   -0.1843   -0.7016    3.0060 O   0  0  0  0  0  0  0  0  0  0  0  0
    0.9398   -0.4102    0.9824 N   0  0  0  0  0  0  0  0  0  0  0  0
    1.4406   -1.7917    0.9471 C   0  0  0  0  0  0  0  0  0  0  0  0
    2.0339   -2.1132   -0.4208 C   0  0  0  0  0  0  0  0  0  0  0  0
    3.1013   -1.1148   -0.7547 C   0  0  0  0  0  0  0  0  0  0  0  0
    4.2337   -1.5016   -1.4887 C   0  0  0  0  0  0  0  0  0  0  0  0
    5.2141   -0.5613   -1.8151 C   0  0  0  0  0  0  0  0  0  0  0  0
    5.0637    0.7709   -1.4241 C   0  0  0  0  0  0  0  0  0  0  0  0
    3.9311    1.1674   -0.7079 C   0  0  0  0  0  0  0  0  0  0  0  0
    2.9457    0.2288   -0.3623 C   0  0  0  0  0  0  0  0  0  0  0  0
    1.6974    0.6898    0.3544 C   0  0  0  0  0  0  0  0  0  0  0  0
   -1.8981    0.5737    0.1671 C   0  0  0  0  0  0  0  0  0  0  0  0
   -3.0399    1.5743   -0.1329 C   0  0  0  0  0  0  0  0  0  0  0  0
   -3.7128    1.2728   -1.4779 C   0  0  0  0  0  0  0  0  0  0  0  0
   -4.2433   -0.1628   -1.5195 C   0  0  0  0  0  0  0  0  0  0  0  0
   -3.1206   -1.1647   -1.2372 C   0  0  0  0  0  0  0  0  0  0  0  0
   -2.4491   -0.8723    0.1098 C   0  0  0  0  0  0  0  0  0  0  0  0
   -0.3753    2.5748    0.7390 H   0  0  0  0  0  0  0  0  0  0  0  0
   -1.5168    2.8745    1.9346 H   0  0  0  0  0  0  0  0  0  0  0  0
   -2.0382    0.7404    2.3236 H   0  0  0  0  0  0  0  0  0  0  0  0
    0.6135   -2.5080    1.1474 H   0  0  0  0  0  0  0  0  0  0  0  0
    2.2139   -1.9235    1.7355 H   0  0  0  0  0  0  0  0  0  0  0  0
    1.2371   -2.0678   -1.1945 H   0  0  0  0  0  0  0  0  0  0  0  0
    2.4499   -3.1441   -0.4006 H   0  0  0  0  0  0  0  0  0  0  0  0
    4.3574   -2.5294   -1.8069 H   0  0  0  0  0  0  0  0  0  0  0  0
    6.0882   -0.8643   -2.3768 H   0  0  0  0  0  0  0  0  0  0  0  0
    5.8210    1.4991   -1.6844 H   0  0  0  0  0  0  0  0  0  0  0  0
    3.8182    2.2074   -0.4274 H   0  0  0  0  0  0  0  0  0  0  0  0
    1.0626    1.1972   -0.3973 H   0  0  0  0  0  0  0  0  0  0  0  0
    1.9809    1.4269    1.1372 H   0  0  0  0  0  0  0  0  0  0  0  0
   -1.1322    0.6802   -0.6301 H   0  0  0  0  0  0  0  0  0  0  0  0
   -3.8018    1.5359    0.6770 H   0  0  0  0  0  0  0  0  0  0  0  0
   -2.6409    2.6097   -0.1784 H   0  0  0  0  0  0  0  0  0  0  0  0
   -4.5568    1.9791   -1.6322 H   0  0  0  0  0  0  0  0  0  0  0  0
   -2.9832    1.4261   -2.3035 H   0  0  0  0  0  0  0  0  0  0  0  0
   -5.0535   -0.2853   -0.7672 H   0  0  0  0  0  0  0  0  0  0  0  0
   -4.6733   -0.3665   -2.5237 H   0  0  0  0  0  0  0  0  0  0  0  0
   -3.5428   -2.1925   -1.2211 H   0  0  0  0  0  0  0  0  0  0  0  0
   -2.3631   -1.1183   -2.0505 H   0  0  0  0  0  0  0  0  0  0  0  0
   -3.1837   -1.0322    0.9300 H   0  0  0  0  0  0  0  0  0  0  0  0
   -1.6241   -1.6031    0.2446 H   0  0  0  0  0  0  0  0  0  0  0  0
  1  2  1  0
  2  3  1  0
  3  4  2  0
  3  5  1  0
  5  6  1  0
  6  7  1  0
  7  8  1  0
  8  9  2  0
  9 10  1  0
 10 11  2  0
 11 12  1  0
 12 13  2  0
 13 14  1  0
  2 15  1  0
 15 16  1  0
 16 17  1  0
 17 18  1  0
 18 19  1  0
 19 20  1  0
 14  5  1  0
 20 15  1  0
 13  8  1  0
  1 21  1  0
  1 22  1  0
  2 23  1  1
  6 24  1  0
  6 25  1  0
  7 26  1  0
  7 27  1  0
  9 28  1  0
 10 29  1  0
 11 30  1  0
 12 31  1  0
 14 32  1  0
 14 33  1  0
 15 34  1  0
 16 35  1  0
 16 36  1  0
 17 37  1  0
 17 38  1  0
 18 39  1  0
 18 40  1  0
 19 41  1  0
 19 42  1  0
 20 43  1  0
 20 44  1  0
M  END
$$$$
