
     RDKit          3D

 46 47  0  0  0  0  0  0  0  0999 V2000
    7.2752   -1.1754   -0.2295 C   0  0  0  0  0  0  0  0  0  0  0  0
    7.5358    0.3300   -0.2695 C   0  0  0  0  0  0  0  0  0  0  0  0
    6.6942    1.1159    0.7498 C   0  0  0  0  0  0  0  0  0  0  0  0
    5.2017    1.1531    0.4061 C   0  0  0  0  0  0  0  0  0  0  0  0
    4.5899   -0.0906    0.7390 O   0  0  0  0  0  0  0  0  0  0  0  0
    3.2338   -0.3874    0.5405 C   0  0  0  0  0  0  0  0  0  0  0  0
    2.7750   -1.6607    0.8910 C   0  0  0  0  0  0  0  0  0  0  0  0
    1.4329   -2.0072    0.7129 C   0  0  0  0  0  0  0  0  0  0  0  0
    0.5181   -1.0781    0.1866 C   0  0  0  0  0  0  0  0  0  0  0  0
   -0.9027   -1.4651   -0.0015 C   0  0  0  0  0  0  0  0  0  0  0  0
   -1.1929   -2.6863   -0.1345 O   0  0  0  0  0  0  0  0  0  0  0  0
   -1.9839   -0.4529   -0.0098 C   0  0  0  0  0  0  0  0  0  0  0  0
   -3.2494   -0.7636   -0.3259 C   0  0  0  0  0  0  0  0  0  0  0  0
   -4.3561    0.2275   -0.3221 C   0  0  0  0  0  0  0  0  0  0  0  0
   -4.1177    1.5879   -0.5980 C   0  0  0  0  0  0  0  0  0  0  0  0
   -5.1665    2.5118   -0.6090 C   0  0  0  0  0  0  0  0  0  0  0  0
   -4.8011    4.1961   -0.9603 Cl  0  0  0  0  0  0  0  0  0  0  0  0
   -6.4795    2.0826   -0.3529 C   0  0  0  0  0  0  0  0  0  0  0  0
   -7.5555    2.9714   -0.3526 O   0  0  0  0  0  0  0  0  0  0  0  0
   -6.7269    0.7320   -0.0940 C   0  0  0  0  0  0  0  0  0  0  0  0
   -5.6762   -0.2059   -0.0792 C   0  0  0  0  0  0  0  0  0  0  0  0
   -5.9089   -1.5673    0.1828 O   0  0  0  0  0  0  0  0  0  0  0  0
   -7.1880   -2.1350    0.4458 C   0  0  0  0  0  0  0  0  0  0  0  0
    0.9839    0.1996   -0.1761 C   0  0  0  0  0  0  0  0  0  0  0  0
    2.3274    0.5436    0.0018 C   0  0  0  0  0  0  0  0  0  0  0  0
    7.3554   -1.5587    0.8099 H   0  0  0  0  0  0  0  0  0  0  0  0
    8.0286   -1.6965   -0.8571 H   0  0  0  0  0  0  0  0  0  0  0  0
    6.2704   -1.4097   -0.6375 H   0  0  0  0  0  0  0  0  0  0  0  0
    8.6096    0.5019   -0.0391 H   0  0  0  0  0  0  0  0  0  0  0  0
    7.3495    0.7127   -1.2965 H   0  0  0  0  0  0  0  0  0  0  0  0
    6.8380    0.6999    1.7710 H   0  0  0  0  0  0  0  0  0  0  0  0
    7.0694    2.1623    0.7652 H   0  0  0  0  0  0  0  0  0  0  0  0
    4.7216    1.9622    0.9983 H   0  0  0  0  0  0  0  0  0  0  0  0
    5.0640    1.3716   -0.6753 H   0  0  0  0  0  0  0  0  0  0  0  0
    3.4639   -2.3871    1.3035 H   0  0  0  0  0  0  0  0  0  0  0  0
    1.1082   -3.0002    0.9981 H   0  0  0  0  0  0  0  0  0  0  0  0
   -1.7419    0.5556    0.2945 H   0  0  0  0  0  0  0  0  0  0  0  0
   -3.4946   -1.7922   -0.5619 H   0  0  0  0  0  0  0  0  0  0  0  0
   -3.1207    1.9372   -0.8326 H   0  0  0  0  0  0  0  0  0  0  0  0
   -7.4481    3.9617   -0.5316 H   0  0  0  0  0  0  0  0  0  0  0  0
   -7.7460    0.4239    0.0961 H   0  0  0  0  0  0  0  0  0  0  0  0
   -7.8613   -1.9789   -0.4234 H   0  0  0  0  0  0  0  0  0  0  0  0
   -7.0726   -3.2254    0.6136 H   0  0  0  0  0  0  0  0  0  0  0  0
   -7.6276   -1.6801    1.3585 H   0  0  0  0  0  0  0  0  0  0  0  0
    0.3207    0.9299   -0.6200 H   0  0  0  0  0  0  0  0  0  0  0  0
    2.6511    1.5338   -0.2880 H   0  0  0  0  0  0  0  0  0  0  0  0
  1  2  1  0
  2  3  1  0
  3  4  1  0
  4  5  1  0
  5  6  1  0
  6  7  2  0
  7  8  1  0
  8  9  2  0
  9 10  1  0
 10 11  2  0
 10 12  1  0
 12 13  2  0
 13 14  1  0
 14 15  2  0
 15 16  1  0
 16 17  1  0
 16 18  2  0
 18 19  1  0
 18 20  1  0
 20 21  2  0
 21 22  1  0
 22 23  1  0
  9 24  1  0
 24 25  2  0
 25  6  1  0
 21 14  1  0
  1 26  1  0
  1 27  1  0
  1 28  1  0
  2 29  1  0
  2 30  1  0
  3 31  1  0
  3 32  1  0
  4 33  1  0
  4 34  1  0
  7 35  1  0
  8 36  1  0
 12 37  1  0
 13 38  1  0
 15 39  1  0
 19 40  1  0
 20 41  1  0
 23 42  1  0
 23 43  1  0
 23 44  1  0
 24 45  1  0
 25 46  1  0
M  END
$$$$
