
     RDKit          3D

 44 46  0  0  0  0  0  0  0  0999 V2000
   -2.8408    5.4339    0.2889 C   0  0  0  0  0  0  0  0  0  0  0  0
   -2.0809    4.5097    0.1418 C   0  0  0  0  0  0  0  0  0  0  0  0
   -1.1716    3.4034   -0.0341 C   0  0  0  0  0  0  0  0  0  0  0  0
    0.1817    3.5693    0.2362 C   0  0  0  0  0  0  0  0  0  0  0  0
    1.0343    2.5339    0.0598 N   0  0  0  0  0  0  0  0  0  0  0  0
    0.6039    1.3178   -0.3689 C   0  0  0  0  0  0  0  0  0  0  0  0
    1.5770    0.2807   -0.5678 N   0  0  0  0  0  0  0  0  0  0  0  0
    2.0434    0.0146   -1.9337 C   0  0  0  0  0  0  0  0  0  0  0  0
    2.4991   -1.4424   -2.0671 C   0  0  0  0  0  0  0  0  0  0  0  0
    3.5062   -1.8050   -0.9696 C   0  0  0  0  0  0  0  0  0  0  0  0
    2.9169   -1.5319    0.4238 C   0  0  1  0  0  0  0  0  0  0  0  0
    3.8968   -1.8716    1.4570 N   0  0  0  0  0  0  0  0  0  0  0  0
    2.4742   -0.0617    0.5404 C   0  0  0  0  0  0  0  0  0  0  0  0
   -0.7346    1.1071   -0.6195 N   0  0  0  0  0  0  0  0  0  0  0  0
   -1.2470   -0.2273   -1.0010 C   0  0  0  0  0  0  0  0  0  0  0  0
   -1.9959   -0.8666    0.1512 C   0  0  0  0  0  0  0  0  0  0  0  0
   -1.2788   -1.2025    1.3131 C   0  0  0  0  0  0  0  0  0  0  0  0
   -1.9227   -1.7885    2.4045 C   0  0  0  0  0  0  0  0  0  0  0  0
   -3.2911   -2.0516    2.3504 C   0  0  0  0  0  0  0  0  0  0  0  0
   -4.0195   -1.7330    1.2030 C   0  0  0  0  0  0  0  0  0  0  0  0
   -3.3849   -1.1445    0.0994 C   0  0  0  0  0  0  0  0  0  0  0  0
   -4.1812   -0.8457   -1.0667 C   0  0  0  0  0  0  0  0  0  0  0  0
   -4.8204   -0.6062   -2.0013 N   0  0  0  0  0  0  0  0  0  0  0  0
   -1.6201    2.1485   -0.4682 C   0  0  0  0  0  0  0  0  0  0  0  0
   -2.8477    1.9840   -0.7159 O   0  0  0  0  0  0  0  0  0  0  0  0
   -3.5080    6.2452    0.4179 H   0  0  0  0  0  0  0  0  0  0  0  0
    0.5649    4.5225    0.5787 H   0  0  0  0  0  0  0  0  0  0  0  0
    1.2327    0.2088   -2.6698 H   0  0  0  0  0  0  0  0  0  0  0  0
    2.8903    0.6948   -2.1712 H   0  0  0  0  0  0  0  0  0  0  0  0
    1.6174   -2.1160   -1.9976 H   0  0  0  0  0  0  0  0  0  0  0  0
    2.9676   -1.5925   -3.0634 H   0  0  0  0  0  0  0  0  0  0  0  0
    3.7668   -2.8821   -1.0574 H   0  0  0  0  0  0  0  0  0  0  0  0
    4.4373   -1.2128   -1.1126 H   0  0  0  0  0  0  0  0  0  0  0  0
    2.0232   -2.1822    0.5597 H   0  0  0  0  0  0  0  0  0  0  0  0
    3.4498   -1.7463    2.3945 H   0  0  0  0  0  0  0  0  0  0  0  0
    4.7027   -1.2061    1.4048 H   0  0  0  0  0  0  0  0  0  0  0  0
    3.3595    0.6113    0.5138 H   0  0  0  0  0  0  0  0  0  0  0  0
    1.9568    0.0867    1.5136 H   0  0  0  0  0  0  0  0  0  0  0  0
   -0.4361   -0.9196   -1.2974 H   0  0  0  0  0  0  0  0  0  0  0  0
   -1.8760   -0.1302   -1.9104 H   0  0  0  0  0  0  0  0  0  0  0  0
   -0.2170   -1.0113    1.3746 H   0  0  0  0  0  0  0  0  0  0  0  0
   -1.3587   -2.0400    3.2934 H   0  0  0  0  0  0  0  0  0  0  0  0
   -3.7880   -2.5062    3.1978 H   0  0  0  0  0  0  0  0  0  0  0  0
   -5.0813   -1.9482    1.1753 H   0  0  0  0  0  0  0  0  0  0  0  0
  1  2  3  0
  2  3  1  0
  3  4  2  0
  4  5  1  0
  5  6  2  0
  6  7  1  0
  7  8  1  0
  8  9  1  0
  9 10  1  0
 10 11  1  0
 11 12  1  0
 11 13  1  0
  6 14  1  0
 14 15  1  0
 15 16  1  0
 16 17  2  0
 17 18  1  0
 18 19  2  0
 19 20  1  0
 20 21  2  0
 21 22  1  0
 22 23  3  0
 14 24  1  0
 24 25  2  0
 24  3  1  0
 13  7  1  0
 21 16  1  0
  1 26  1  0
  4 27  1  0
  8 28  1  0
  8 29  1  0
  9 30  1  0
  9 31  1  0
 10 32  1  0
 10 33  1  0
 11 34  1  1
 12 35  1  0
 12 36  1  0
 13 37  1  0
 13 38  1  0
 15 39  1  0
 15 40  1  0
 17 41  1  0
 18 42  1  0
 19 43  1  0
 20 44  1  0
M  END
$$$$
