
     RDKit          3D

 50 51  0  0  0  0  0  0  0  0999 V2000
   -2.0314    0.0093    2.2885 N   0  0  0  0  0  0  0  0  0  0  0  0
   -2.5357    0.4326    0.9788 C   0  0  1  0  0  0  0  0  0  0  0  0
   -1.7766   -0.3097   -0.1398 C   0  0  0  0  0  0  0  0  0  0  0  0
   -0.2980   -0.0232   -0.0823 C   0  0  0  0  0  0  0  0  0  0  0  0
    0.1015    1.1263   -0.4136 O   0  0  0  0  0  0  0  0  0  0  0  0
    0.6580   -1.0088    0.3605 N   0  0  0  0  0  0  0  0  0  0  0  0
    0.3050   -2.3364    0.8418 C   0  0  0  0  0  0  0  0  0  0  0  0
    1.6168   -2.9953    1.2464 C   0  0  0  0  0  0  0  0  0  0  0  0
    2.6251   -1.8595    1.3765 C   0  0  0  0  0  0  0  0  0  0  0  0
    2.0806   -0.7238    0.5046 C   0  0  1  0  0  0  0  0  0  0  0  0
    2.7556   -0.6855   -0.8807 C   0  0  0  0  0  0  0  0  0  0  0  0
    4.1705   -0.3368   -0.7632 N   0  0  0  0  0  0  0  0  0  0  0  0
    4.6146    0.9879   -0.4387 C   0  0  0  0  0  0  0  0  0  0  0  0
    3.7840    1.9308   -0.3324 O   0  0  0  0  0  0  0  0  0  0  0  0
    6.0682    1.2520   -0.1805 C   0  0  0  0  0  0  0  0  0  0  0  0
    6.4346    0.9460    1.2717 C   0  0  0  0  0  0  0  0  0  0  0  0
    5.6914    1.7387    2.1289 F   0  0  0  0  0  0  0  0  0  0  0  0
    7.7775    1.2086    1.4709 F   0  0  0  0  0  0  0  0  0  0  0  0
    6.1921   -0.3864    1.5568 F   0  0  0  0  0  0  0  0  0  0  0  0
   -4.0613    0.1948    0.8888 C   0  0  0  0  0  0  0  0  0  0  0  0
   -4.6643    0.8246   -0.3442 C   0  0  0  0  0  0  0  0  0  0  0  0
   -4.8903    2.2113   -0.3787 C   0  0  0  0  0  0  0  0  0  0  0  0
   -5.4280    2.8123   -1.5209 C   0  0  0  0  0  0  0  0  0  0  0  0
   -5.6429    4.1510   -1.5423 F   0  0  0  0  0  0  0  0  0  0  0  0
   -5.7412    2.0345   -2.6394 C   0  0  0  0  0  0  0  0  0  0  0  0
   -6.2616    2.6162   -3.7483 F   0  0  0  0  0  0  0  0  0  0  0  0
   -5.5153    0.6556   -2.6168 C   0  0  0  0  0  0  0  0  0  0  0  0
   -4.9778    0.0486   -1.4769 C   0  0  0  0  0  0  0  0  0  0  0  0
   -4.7575   -1.2907   -1.4833 F   0  0  0  0  0  0  0  0  0  0  0  0
   -2.4510    0.6232    3.0243 H   0  0  0  0  0  0  0  0  0  0  0  0
   -2.3467   -0.9694    2.4821 H   0  0  0  0  0  0  0  0  0  0  0  0
   -2.3422    1.5240    0.8694 H   0  0  0  0  0  0  0  0  0  0  0  0
   -2.1445    0.0320   -1.1305 H   0  0  0  0  0  0  0  0  0  0  0  0
   -1.9831   -1.3975   -0.0786 H   0  0  0  0  0  0  0  0  0  0  0  0
   -0.3661   -2.2524    1.7225 H   0  0  0  0  0  0  0  0  0  0  0  0
   -0.1882   -2.9233    0.0372 H   0  0  0  0  0  0  0  0  0  0  0  0
    1.9476   -3.6926    0.4453 H   0  0  0  0  0  0  0  0  0  0  0  0
    1.5136   -3.5567    2.2003 H   0  0  0  0  0  0  0  0  0  0  0  0
    3.6450   -2.1913    1.0841 H   0  0  0  0  0  0  0  0  0  0  0  0
    2.6567   -1.5231    2.4364 H   0  0  0  0  0  0  0  0  0  0  0  0
    2.2190    0.2469    1.0300 H   0  0  0  0  0  0  0  0  0  0  0  0
    2.2507    0.0521   -1.5400 H   0  0  0  0  0  0  0  0  0  0  0  0
    2.6612   -1.6817   -1.3663 H   0  0  0  0  0  0  0  0  0  0  0  0
    4.8825   -1.0796   -0.9461 H   0  0  0  0  0  0  0  0  0  0  0  0
    6.6860    0.6249   -0.8587 H   0  0  0  0  0  0  0  0  0  0  0  0
    6.2985    2.3170   -0.4020 H   0  0  0  0  0  0  0  0  0  0  0  0
   -4.5531    0.6369    1.7829 H   0  0  0  0  0  0  0  0  0  0  0  0
   -4.2774   -0.8953    0.9211 H   0  0  0  0  0  0  0  0  0  0  0  0
   -4.6474    2.8253    0.4799 H   0  0  0  0  0  0  0  0  0  0  0  0
   -5.7548    0.0557   -3.4855 H   0  0  0  0  0  0  0  0  0  0  0  0
  1  2  1  0
  2  3  1  0
  3  4  1  0
  4  5  2  0
  4  6  1  0
  6  7  1  0
  7  8  1  0
  8  9  1  0
  9 10  1  0
 10 11  1  0
 11 12  1  0
 12 13  1  0
 13 14  2  0
 13 15  1  0
 15 16  1  0
 16 17  1  0
 16 18  1  0
 16 19  1  0
  2 20  1  0
 20 21  1  0
 21 22  2  0
 22 23  1  0
 23 24  1  0
 23 25  2  0
 25 26  1  0
 25 27  1  0
 27 28  2  0
 28 29  1  0
 10  6  1  0
 28 21  1  0
  1 30  1  0
  1 31  1  0
  2 32  1  6
  3 33  1  0
  3 34  1  0
  7 35  1  0
  7 36  1  0
  8 37  1  0
  8 38  1  0
  9 39  1  0
  9 40  1  0
 10 41  1  1
 11 42  1  0
 11 43  1  0
 12 44  1  0
 15 45  1  0
 15 46  1  0
 20 47  1  0
 20 48  1  0
 22 49  1  0
 27 50  1  0
M  END
$$$$
