
     RDKit          3D

 51 53  0  0  0  0  0  0  0  0999 V2000
   -1.1113   -2.3836    1.1933 N   0  0  0  0  0  0  0  0  0  0  0  0
   -0.9458   -1.0237    0.6720 C   0  0  1  0  0  0  0  0  0  0  0  0
    0.5152   -0.7667    0.2564 C   0  0  0  0  0  0  0  0  0  0  0  0
    0.6837    0.5890   -0.2889 N   0  0  0  0  0  0  0  0  0  0  0  0
    2.0135    1.1410   -0.3757 C   0  0  0  0  0  0  0  0  0  0  0  0
    2.2446    2.5404   -0.2847 C   0  0  0  0  0  0  0  0  0  0  0  0
    3.5530    3.0461   -0.3604 C   0  0  0  0  0  0  0  0  0  0  0  0
    4.5761    2.1234   -0.5169 C   0  0  0  0  0  0  0  0  0  0  0  0
    5.8984    2.3602   -0.6061 N   0  0  0  0  0  0  0  0  0  0  0  0
    6.4795    1.1670   -0.7371 N   0  0  0  0  0  0  0  0  0  0  0  0
    5.5001    0.2311   -0.7240 C   0  0  0  0  0  0  0  0  0  0  0  0
    5.7222   -1.2435   -0.8417 C   0  0  0  0  0  0  0  0  0  0  0  0
    7.0721   -1.5145   -0.9737 F   0  0  0  0  0  0  0  0  0  0  0  0
    5.2420   -1.8747    0.2904 F   0  0  0  0  0  0  0  0  0  0  0  0
    5.0531   -1.7244   -1.9516 F   0  0  0  0  0  0  0  0  0  0  0  0
    4.3069    0.8221   -0.5866 N   0  0  0  0  0  0  0  0  0  0  0  0
    3.0846    0.3026   -0.5195 N   0  0  0  0  0  0  0  0  0  0  0  0
   -0.4943    1.3719   -0.6951 C   0  0  0  0  0  0  0  0  0  0  0  0
   -1.5377    0.4680   -1.3641 C   0  0  0  0  0  0  0  0  0  0  0  0
   -1.9085   -0.7845   -0.5187 C   0  0  2  0  0  0  0  0  0  0  0  0
   -3.3513   -0.7317   -0.0361 C   0  0  0  0  0  0  0  0  0  0  0  0
   -3.8051    0.3558    0.7366 C   0  0  0  0  0  0  0  0  0  0  0  0
   -5.1240    0.4004    1.1970 C   0  0  0  0  0  0  0  0  0  0  0  0
   -5.5461    1.4562    1.9360 F   0  0  0  0  0  0  0  0  0  0  0  0
   -6.0050   -0.6416    0.8986 C   0  0  0  0  0  0  0  0  0  0  0  0
   -7.2846   -0.5999    1.3457 F   0  0  0  0  0  0  0  0  0  0  0  0
   -5.5667   -1.7304    0.1419 C   0  0  0  0  0  0  0  0  0  0  0  0
   -4.2483   -1.7823   -0.3227 C   0  0  0  0  0  0  0  0  0  0  0  0
   -3.8526   -2.8602   -1.0464 F   0  0  0  0  0  0  0  0  0  0  0  0
    0.9133    0.8406   -1.1906 O   0  0  0  0  0  0  0  0  0  0  0  0
    0.4964    0.1063   -0.2553 C   0  0  0  0  0  0  0  0  0  0  0  0
    1.3998   -0.6395    0.4960 O   0  0  0  0  0  0  0  0  0  0  0  0
   -0.9586    0.0822    0.0848 C   0  0  0  0  0  0  0  0  0  0  0  0
   -1.2699   -1.0910    0.7474 F   0  0  0  0  0  0  0  0  0  0  0  0
   -1.7154    0.1611   -1.0703 F   0  0  0  0  0  0  0  0  0  0  0  0
   -1.2568    1.1577    0.8998 F   0  0  0  0  0  0  0  0  0  0  0  0
   -0.5220   -2.4875    2.0514 H   0  0  0  0  0  0  0  0  0  0  0  0
   -0.7590   -3.0724    0.4888 H   0  0  0  0  0  0  0  0  0  0  0  0
   -1.1896   -0.3081    1.4896 H   0  0  0  0  0  0  0  0  0  0  0  0
    1.1624   -0.8872    1.1531 H   0  0  0  0  0  0  0  0  0  0  0  0
    0.8340   -1.5085   -0.5081 H   0  0  0  0  0  0  0  0  0  0  0  0
    1.4264    3.2319   -0.1350 H   0  0  0  0  0  0  0  0  0  0  0  0
    3.7534    4.1074   -0.2906 H   0  0  0  0  0  0  0  0  0  0  0  0
   -0.9307    1.8725    0.1950 H   0  0  0  0  0  0  0  0  0  0  0  0
   -0.2085    2.1550   -1.4304 H   0  0  0  0  0  0  0  0  0  0  0  0
   -1.1147    0.1309   -2.3369 H   0  0  0  0  0  0  0  0  0  0  0  0
   -2.4366    1.0739   -1.6127 H   0  0  0  0  0  0  0  0  0  0  0  0
   -1.7918   -1.6529   -1.2051 H   0  0  0  0  0  0  0  0  0  0  0  0
   -3.1372    1.1707    0.9825 H   0  0  0  0  0  0  0  0  0  0  0  0
   -6.2501   -2.5391   -0.0838 H   0  0  0  0  0  0  0  0  0  0  0  0
    2.3911   -0.6174    0.2883 H   0  0  0  0  0  0  0  0  0  0  0  0
  1  2  1  0
  2  3  1  0
  3  4  1  0
  4  5  1  0
  5  6  1  0
  6  7  2  0
  7  8  1  0
  8  9  2  0
  9 10  1  0
 10 11  2  0
 11 12  1  0
 12 13  1  0
 12 14  1  0
 12 15  1  0
 11 16  1  0
 16 17  1  0
  4 18  1  0
 18 19  1  0
 19 20  1  0
 20 21  1  0
 21 22  2  0
 22 23  1  0
 23 24  1  0
 23 25  2  0
 25 26  1  0
 25 27  1  0
 27 28  2  0
 28 29  1  0
 30 31  2  0
 31 32  1  0
 31 33  1  0
 33 34  1  0
 33 35  1  0
 33 36  1  0
 20  2  1  0
 28 21  1  0
 17  5  2  0
 16  8  1  0
  1 37  1  0
  1 38  1  0
  2 39  1  1
  3 40  1  0
  3 41  1  0
  6 42  1  0
  7 43  1  0
 18 44  1  0
 18 45  1  0
 19 46  1  0
 19 47  1  0
 20 48  1  6
 22 49  1  0
 27 50  1  0
 32 51  1  0
M  END
$$$$
