
     RDKit          3D

 43 44  0  0  0  0  0  0  0  0999 V2000
   -4.0608    2.6251    0.7702 C   0  0  0  0  0  0  0  0  0  0  0  0
   -3.1119    1.8602    0.0618 O   0  0  0  0  0  0  0  0  0  0  0  0
   -2.8464    0.6652    0.7693 C   0  0  0  0  0  0  0  0  0  0  0  0
   -1.8098   -0.1872   -0.0093 C   0  0  0  0  0  0  0  0  0  0  0  0
   -0.5813    0.6387   -0.1573 N   0  0  0  0  0  0  0  0  0  0  0  0
    0.4125    0.1868   -1.1458 C   0  0  0  0  0  0  0  0  0  0  0  0
    1.6909    0.9684   -0.9901 C   0  0  0  0  0  0  0  0  0  0  0  0
    1.7839    2.0804   -1.5780 O   0  0  0  0  0  0  0  0  0  0  0  0
    2.7746    0.5178   -0.1468 N   0  0  0  0  0  0  0  0  0  0  0  0
    2.9119   -0.8369    0.3764 C   0  0  2  0  0  0  0  0  0  0  0  0
    2.0733   -0.9999    1.5746 C   0  0  0  0  0  0  0  0  0  0  0  0
    1.4177   -1.1271    2.5197 N   0  0  0  0  0  0  0  0  0  0  0  0
    4.3919   -0.9874    0.7263 C   0  0  0  0  0  0  0  0  0  0  0  0
    4.9202    0.4326    0.8937 C   0  0  0  0  0  0  0  0  0  0  0  0
    3.9754    1.3164    0.0764 C   0  0  2  0  0  0  0  0  0  0  0  0
    3.6481    2.5558    0.8012 C   0  0  0  0  0  0  0  0  0  0  0  0
    3.3898    3.5296    1.3706 N   0  0  0  0  0  0  0  0  0  0  0  0
   -2.4298   -0.6669   -1.3405 C   0  0  0  0  0  0  0  0  0  0  0  0
   -3.2373   -1.9098   -0.9856 C   0  0  0  0  0  0  0  0  0  0  0  0
   -2.6099   -2.4907    0.2821 C   0  0  0  0  0  0  0  0  0  0  0  0
   -1.5491   -1.4978    0.7577 C   0  0  0  0  0  0  0  0  0  0  0  0
   -4.2505    3.5619    0.2072 H   0  0  0  0  0  0  0  0  0  0  0  0
   -3.6805    2.9091    1.7767 H   0  0  0  0  0  0  0  0  0  0  0  0
   -5.0292    2.0841    0.8581 H   0  0  0  0  0  0  0  0  0  0  0  0
   -2.4252    0.9043    1.7738 H   0  0  0  0  0  0  0  0  0  0  0  0
   -3.7843    0.0815    0.9186 H   0  0  0  0  0  0  0  0  0  0  0  0
   -0.1221    0.7098    0.7820 H   0  0  0  0  0  0  0  0  0  0  0  0
    0.6019   -0.9002   -1.0733 H   0  0  0  0  0  0  0  0  0  0  0  0
    0.0317    0.3949   -2.1680 H   0  0  0  0  0  0  0  0  0  0  0  0
    2.6367   -1.5934   -0.3888 H   0  0  0  0  0  0  0  0  0  0  0  0
    4.9203   -1.4702   -0.1256 H   0  0  0  0  0  0  0  0  0  0  0  0
    4.5684   -1.5996    1.6391 H   0  0  0  0  0  0  0  0  0  0  0  0
    5.9671    0.5162    0.5288 H   0  0  0  0  0  0  0  0  0  0  0  0
    4.8946    0.6959    1.9758 H   0  0  0  0  0  0  0  0  0  0  0  0
    4.4419    1.5686   -0.9009 H   0  0  0  0  0  0  0  0  0  0  0  0
   -1.6643   -0.9905   -2.0725 H   0  0  0  0  0  0  0  0  0  0  0  0
   -3.0658    0.1054   -1.8249 H   0  0  0  0  0  0  0  0  0  0  0  0
   -3.2179   -2.6487   -1.8166 H   0  0  0  0  0  0  0  0  0  0  0  0
   -4.2951   -1.6272   -0.7898 H   0  0  0  0  0  0  0  0  0  0  0  0
   -3.3888   -2.6225    1.0649 H   0  0  0  0  0  0  0  0  0  0  0  0
   -2.1475   -3.4800    0.0715 H   0  0  0  0  0  0  0  0  0  0  0  0
   -1.5959   -1.3601    1.8605 H   0  0  0  0  0  0  0  0  0  0  0  0
   -0.5492   -1.9122    0.5181 H   0  0  0  0  0  0  0  0  0  0  0  0
  1  2  1  0
  2  3  1  0
  3  4  1  0
  4  5  1  0
  5  6  1  0
  6  7  1  0
  7  8  2  0
  7  9  1  0
  9 10  1  0
 10 11  1  0
 11 12  3  0
 10 13  1  0
 13 14  1  0
 14 15  1  0
 15 16  1  0
 16 17  3  0
  4 18  1  0
 18 19  1  0
 19 20  1  0
 20 21  1  0
 21  4  1  0
 15  9  1  0
  1 22  1  0
  1 23  1  0
  1 24  1  0
  3 25  1  0
  3 26  1  0
  5 27  1  0
  6 28  1  0
  6 29  1  0
 10 30  1  6
 13 31  1  0
 13 32  1  0
 14 33  1  0
 14 34  1  0
 15 35  1  6
 18 36  1  0
 18 37  1  0
 19 38  1  0
 19 39  1  0
 20 40  1  0
 20 41  1  0
 21 42  1  0
 21 43  1  0
M  END
$$$$
