
     RDKit          3D

 94 98  0  0  0  0  0  0  0  0999 V2000
   -3.8618   -6.6546   -5.6995 C   0  0  0  0  0  0  0  0  0  0  0  0
   -3.2648   -5.3725   -5.2186 C   0  0  0  0  0  0  0  0  0  0  0  0
   -2.7112   -4.6001   -6.0470 O   0  0  0  0  0  0  0  0  0  0  0  0
   -3.4095   -4.9891   -3.8424 N   0  0  0  0  0  0  0  0  0  0  0  0
   -2.7245   -3.8789   -3.2370 C   0  0  0  0  0  0  0  0  0  0  0  0
   -3.3457   -3.1717   -2.1980 C   0  0  0  0  0  0  0  0  0  0  0  0
   -2.6936   -2.1035   -1.5753 C   0  0  0  0  0  0  0  0  0  0  0  0
   -1.3941   -1.7360   -1.9737 C   0  0  0  0  0  0  0  0  0  0  0  0
   -0.6838   -0.6827   -1.3814 O   0  0  0  0  0  0  0  0  0  0  0  0
   -1.2101    0.2042   -0.0032 P   0  0  0  0  0  0  0  0  0  0  0  0
   -1.5038   -0.7698    1.1165 O   0  0  0  0  0  0  0  0  0  0  0  0
   -2.6479    1.0611   -0.4251 O   0  0  0  0  0  0  0  0  0  0  0  0
   -3.4596    1.7812    0.4658 C   0  0  0  0  0  0  0  0  0  0  0  0
   -3.2934    1.7424    1.8636 C   0  0  0  0  0  0  0  0  0  0  0  0
   -4.1009    2.5256    2.6924 C   0  0  0  0  0  0  0  0  0  0  0  0
   -5.0828    3.3626    2.1458 C   0  0  0  0  0  0  0  0  0  0  0  0
   -5.9031    4.1538    3.0221 N   0  0  0  0  0  0  0  0  0  0  0  0
   -6.4125    5.4541    2.6884 C   0  0  0  0  0  0  0  0  0  0  0  0
   -7.4019    6.1183    3.5893 C   0  0  0  0  0  0  0  0  0  0  0  0
   -5.9729    6.0796    1.6860 O   0  0  0  0  0  0  0  0  0  0  0  0
   -5.2784    3.3672    0.7544 C   0  0  0  0  0  0  0  0  0  0  0  0
   -4.4706    2.5837   -0.0741 C   0  0  0  0  0  0  0  0  0  0  0  0
    0.1570    1.3325    0.4825 C   0  0  0  0  0  0  0  0  0  0  0  0
   -0.3475    2.6934    0.8038 C   0  0  0  0  0  0  0  0  0  0  0  0
   -0.9090    3.6342   -0.0645 C   0  0  0  0  0  0  0  0  0  0  0  0
   -1.3474    4.8585    0.4641 C   0  0  0  0  0  0  0  0  0  0  0  0
   -1.1974    5.1324    1.8367 C   0  0  0  0  0  0  0  0  0  0  0  0
   -0.5965    4.1885    2.6847 C   0  0  0  0  0  0  0  0  0  0  0  0
   -0.1735    2.9755    2.1389 C   0  0  0  0  0  0  0  0  0  0  0  0
    0.5096    1.8573    2.8303 C   0  0  0  0  0  0  0  0  0  0  0  0
    0.7545    0.8953    1.7525 N   0  0  0  0  0  0  0  0  0  0  0  0
    1.6017   -0.2570    1.9316 C   0  0  0  0  0  0  0  0  0  0  0  0
    1.9421   -0.5917    3.0995 O   0  0  0  0  0  0  0  0  0  0  0  0
    2.1816   -1.0098    0.7534 C   0  0  2  0  0  0  0  0  0  0  0  0
    2.2507   -2.5292    1.0026 C   0  0  0  0  0  0  0  0  0  0  0  0
    0.8519   -3.1593    1.1250 C   0  0  0  0  0  0  0  0  0  0  0  0
    0.8945   -4.6952    1.1938 C   0  0  0  0  0  0  0  0  0  0  0  0
    1.5012   -5.2392    2.4952 C   0  0  0  0  0  0  0  0  0  0  0  0
    0.7466   -4.7795    3.6579 N   0  0  0  0  0  0  0  0  0  0  0  0
    3.5273   -0.4988    0.4839 N   0  0  0  0  0  0  0  0  0  0  0  0
    3.9595   -0.0654   -0.8116 C   0  0  0  0  0  0  0  0  0  0  0  0
    3.1681   -0.0931   -1.7943 O   0  0  0  0  0  0  0  0  0  0  0  0
    5.2706    0.3897   -0.9742 O   0  0  0  0  0  0  0  0  0  0  0  0
    5.7775    0.8414   -2.2252 C   0  0  0  0  0  0  0  0  0  0  0  0
    7.2071    1.2642   -2.0558 C   0  0  0  0  0  0  0  0  0  0  0  0
    8.2447    0.3294   -2.2064 C   0  0  0  0  0  0  0  0  0  0  0  0
    9.5744    0.7163   -2.0112 C   0  0  0  0  0  0  0  0  0  0  0  0
    9.8755    2.0334   -1.6531 C   0  0  0  0  0  0  0  0  0  0  0  0
    8.8468    2.9646   -1.4847 C   0  0  0  0  0  0  0  0  0  0  0  0
    7.5158    2.5817   -1.6790 C   0  0  0  0  0  0  0  0  0  0  0  0
   -0.7692   -2.4533   -2.9994 C   0  0  0  0  0  0  0  0  0  0  0  0
   -1.4209   -3.5213   -3.6221 C   0  0  0  0  0  0  0  0  0  0  0  0
   -3.3685   -6.9821   -6.6392 H   0  0  0  0  0  0  0  0  0  0  0  0
   -3.7265   -7.4460   -4.9328 H   0  0  0  0  0  0  0  0  0  0  0  0
   -4.9458   -6.5096   -5.8880 H   0  0  0  0  0  0  0  0  0  0  0  0
   -4.1185   -5.5006   -3.2692 H   0  0  0  0  0  0  0  0  0  0  0  0
   -4.3436   -3.4433   -1.8770 H   0  0  0  0  0  0  0  0  0  0  0  0
   -3.2127   -1.5745   -0.7894 H   0  0  0  0  0  0  0  0  0  0  0  0
   -2.5350    1.1304    2.3255 H   0  0  0  0  0  0  0  0  0  0  0  0
   -3.9487    2.4941    3.7641 H   0  0  0  0  0  0  0  0  0  0  0  0
   -6.0643    3.8042    3.9940 H   0  0  0  0  0  0  0  0  0  0  0  0
   -8.1276    5.3700    3.9712 H   0  0  0  0  0  0  0  0  0  0  0  0
   -7.9593    6.9050    3.0380 H   0  0  0  0  0  0  0  0  0  0  0  0
   -6.8690    6.5811    4.4458 H   0  0  0  0  0  0  0  0  0  0  0  0
   -6.0647    3.9604    0.3071 H   0  0  0  0  0  0  0  0  0  0  0  0
   -4.6227    2.6096   -1.1457 H   0  0  0  0  0  0  0  0  0  0  0  0
    0.9252    1.4014   -0.3165 H   0  0  0  0  0  0  0  0  0  0  0  0
   -1.0262    3.4149   -1.1178 H   0  0  0  0  0  0  0  0  0  0  0  0
   -1.8047    5.5930   -0.1857 H   0  0  0  0  0  0  0  0  0  0  0  0
   -1.5385    6.0776    2.2382 H   0  0  0  0  0  0  0  0  0  0  0  0
   -0.4628    4.3986    3.7378 H   0  0  0  0  0  0  0  0  0  0  0  0
   -0.1484    1.4112    3.6060 H   0  0  0  0  0  0  0  0  0  0  0  0
    1.4700    2.2060    3.2667 H   0  0  0  0  0  0  0  0  0  0  0  0
    1.5416   -0.8580   -0.1347 H   0  0  0  0  0  0  0  0  0  0  0  0
    2.7811   -3.0010    0.1462 H   0  0  0  0  0  0  0  0  0  0  0  0
    2.8455   -2.7289    1.9192 H   0  0  0  0  0  0  0  0  0  0  0  0
    0.3259   -2.7548    2.0159 H   0  0  0  0  0  0  0  0  0  0  0  0
    0.2546   -2.8808    0.2305 H   0  0  0  0  0  0  0  0  0  0  0  0
   -0.1435   -5.0820    1.0971 H   0  0  0  0  0  0  0  0  0  0  0  0
    1.4717   -5.0903    0.3297 H   0  0  0  0  0  0  0  0  0  0  0  0
    2.5610   -4.9205    2.5868 H   0  0  0  0  0  0  0  0  0  0  0  0
    1.4908   -6.3515    2.4605 H   0  0  0  0  0  0  0  0  0  0  0  0
   -0.1940   -5.2368    3.6392 H   0  0  0  0  0  0  0  0  0  0  0  0
    1.2329   -5.1334    4.5132 H   0  0  0  0  0  0  0  0  0  0  0  0
    4.2299   -0.5040    1.2580 H   0  0  0  0  0  0  0  0  0  0  0  0
    5.7066    0.0238   -2.9759 H   0  0  0  0  0  0  0  0  0  0  0  0
    5.1671    1.6964   -2.5906 H   0  0  0  0  0  0  0  0  0  0  0  0
    8.0243   -0.6967   -2.4740 H   0  0  0  0  0  0  0  0  0  0  0  0
   10.3712   -0.0059   -2.1338 H   0  0  0  0  0  0  0  0  0  0  0  0
   10.9049    2.3309   -1.5010 H   0  0  0  0  0  0  0  0  0  0  0  0
    9.0805    3.9823   -1.1998 H   0  0  0  0  0  0  0  0  0  0  0  0
    6.7275    3.3104   -1.5356 H   0  0  0  0  0  0  0  0  0  0  0  0
    0.2359   -2.1906   -3.3048 H   0  0  0  0  0  0  0  0  0  0  0  0
   -0.8937   -4.0807   -4.3831 H   0  0  0  0  0  0  0  0  0  0  0  0
  1  2  1  0
  2  3  2  0
  2  4  1  0
  4  5  1  0
  5  6  2  0
  6  7  1  0
  7  8  2  0
  8  9  1  0
  9 10  1  0
 10 11  2  0
 10 12  1  0
 12 13  1  0
 13 14  2  0
 14 15  1  0
 15 16  2  0
 16 17  1  0
 17 18  1  0
 18 19  1  0
 18 20  2  0
 16 21  1  0
 21 22  2  0
 10 23  1  0
 23 24  1  0
 24 25  2  0
 25 26  1  0
 26 27  2  0
 27 28  1  0
 28 29  2  0
 29 30  1  0
 30 31  1  0
 31 32  1  0
 32 33  2  0
 32 34  1  0
 34 35  1  0
 35 36  1  0
 36 37  1  0
 37 38  1  0
 38 39  1  0
 34 40  1  0
 40 41  1  0
 41 42  2  0
 41 43  1  0
 43 44  1  0
 44 45  1  0
 45 46  2  0
 46 47  1  0
 47 48  2  0
 48 49  1  0
 49 50  2  0
  8 51  1  0
 51 52  2  0
 52  5  1  0
 22 13  1  0
 31 23  1  0
 50 45  1  0
 29 24  1  0
  1 53  1  0
  1 54  1  0
  1 55  1  0
  4 56  1  0
  6 57  1  0
  7 58  1  0
 14 59  1  0
 15 60  1  0
 17 61  1  0
 19 62  1  0
 19 63  1  0
 19 64  1  0
 21 65  1  0
 22 66  1  0
 23 67  1  0
 25 68  1  0
 26 69  1  0
 27 70  1  0
 28 71  1  0
 30 72  1  0
 30 73  1  0
 34 74  1  6
 35 75  1  0
 35 76  1  0
 36 77  1  0
 36 78  1  0
 37 79  1  0
 37 80  1  0
 38 81  1  0
 38 82  1  0
 39 83  1  0
 39 84  1  0
 40 85  1  0
 44 86  1  0
 44 87  1  0
 46 88  1  0
 47 89  1  0
 48 90  1  0
 49 91  1  0
 50 92  1  0
 51 93  1  0
 52 94  1  0
M  END
$$$$
