
     RDKit          3D

 47 50  0  0  0  0  0  0  0  0999 V2000
   -2.4058    0.8526    2.3926 N   0  0  0  0  0  0  0  0  0  0  0  0
   -1.8527    1.5295    1.2130 C   0  0  1  0  0  0  0  0  0  0  0  0
   -0.5153    2.1801    1.5702 C   0  0  0  0  0  0  0  0  0  0  0  0
    0.5076    1.2568    1.1027 N   0  0  0  0  0  0  0  0  0  0  0  0
    1.9138    1.5457    1.2040 C   0  0  0  0  0  0  0  0  0  0  0  0
    2.2881    2.7199    1.4713 O   0  0  0  0  0  0  0  0  0  0  0  0
    2.9370    0.5029    0.9842 C   0  0  0  0  0  0  0  0  0  0  0  0
    2.7980   -0.7696    1.5634 C   0  0  0  0  0  0  0  0  0  0  0  0
    3.7731   -1.7509    1.3626 C   0  0  0  0  0  0  0  0  0  0  0  0
    4.9040   -1.4681    0.5914 C   0  0  0  0  0  0  0  0  0  0  0  0
    5.8539   -2.4222    0.3948 N   0  0  0  0  0  0  0  0  0  0  0  0
    6.9684   -2.1787   -0.3455 C   0  0  0  0  0  0  0  0  0  0  0  0
    7.1649   -0.9237   -0.9274 C   0  0  0  0  0  0  0  0  0  0  0  0
    6.2086    0.0772   -0.7429 C   0  0  0  0  0  0  0  0  0  0  0  0
    5.0640   -0.1859    0.0211 C   0  0  0  0  0  0  0  0  0  0  0  0
    4.0832    0.7955    0.2262 C   0  0  0  0  0  0  0  0  0  0  0  0
   -0.0435    0.1679    0.3083 C   0  0  0  0  0  0  0  0  0  0  0  0
   -1.5059    0.5564    0.0648 C   0  0  1  0  0  0  0  0  0  0  0  0
   -2.4586   -0.6170   -0.0773 C   0  0  0  0  0  0  0  0  0  0  0  0
   -2.1666   -1.7270    0.4468 O   0  0  0  0  0  0  0  0  0  0  0  0
   -3.7260   -0.4709   -0.7452 N   0  0  0  0  0  0  0  0  0  0  0  0
   -4.7138   -1.5351   -0.7903 C   0  0  0  0  0  0  0  0  0  0  0  0
   -5.9652   -0.9114   -1.3929 C   0  0  0  0  0  0  0  0  0  0  0  0
   -5.5082    0.3833   -2.0587 C   0  0  0  0  0  0  0  0  0  0  0  0
   -4.1768    0.7404   -1.4109 C   0  0  0  0  0  0  0  0  0  0  0  0
   -1.8204    0.0194    2.6335 H   0  0  0  0  0  0  0  0  0  0  0  0
   -3.3720    0.5188    2.1720 H   0  0  0  0  0  0  0  0  0  0  0  0
   -2.5710    2.3060    0.8686 H   0  0  0  0  0  0  0  0  0  0  0  0
   -0.4145    2.3480    2.6649 H   0  0  0  0  0  0  0  0  0  0  0  0
   -0.4098    3.1508    1.0376 H   0  0  0  0  0  0  0  0  0  0  0  0
    1.9485   -0.9970    2.1942 H   0  0  0  0  0  0  0  0  0  0  0  0
    3.6512   -2.7274    1.8150 H   0  0  0  0  0  0  0  0  0  0  0  0
    7.7037   -2.9603   -0.4824 H   0  0  0  0  0  0  0  0  0  0  0  0
    8.0517   -0.7288   -1.5164 H   0  0  0  0  0  0  0  0  0  0  0  0
    6.3622    1.0500   -1.1945 H   0  0  0  0  0  0  0  0  0  0  0  0
    4.2028    1.7797   -0.2129 H   0  0  0  0  0  0  0  0  0  0  0  0
    0.0445   -0.7781    0.8797 H   0  0  0  0  0  0  0  0  0  0  0  0
    0.4989    0.0736   -0.6581 H   0  0  0  0  0  0  0  0  0  0  0  0
   -1.5215    1.1386   -0.8822 H   0  0  0  0  0  0  0  0  0  0  0  0
   -4.9236   -1.9149    0.2334 H   0  0  0  0  0  0  0  0  0  0  0  0
   -4.3406   -2.3623   -1.4322 H   0  0  0  0  0  0  0  0  0  0  0  0
   -6.4460   -1.5954   -2.1256 H   0  0  0  0  0  0  0  0  0  0  0  0
   -6.6909   -0.6751   -0.5836 H   0  0  0  0  0  0  0  0  0  0  0  0
   -5.3589    0.2067   -3.1468 H   0  0  0  0  0  0  0  0  0  0  0  0
   -6.2561    1.1943   -1.9210 H   0  0  0  0  0  0  0  0  0  0  0  0
   -3.4478    1.0556   -2.1878 H   0  0  0  0  0  0  0  0  0  0  0  0
   -4.3167    1.5499   -0.6633 H   0  0  0  0  0  0  0  0  0  0  0  0
  1  2  1  0
  2  3  1  0
  3  4  1  0
  4  5  1  0
  5  6  2  0
  5  7  1  0
  7  8  2  0
  8  9  1  0
  9 10  2  0
 10 11  1  0
 11 12  2  0
 12 13  1  0
 13 14  2  0
 14 15  1  0
 15 16  2  0
  4 17  1  0
 17 18  1  0
 18 19  1  0
 19 20  2  0
 19 21  1  0
 21 22  1  0
 22 23  1  0
 23 24  1  0
 24 25  1  0
 18  2  1  0
 25 21  1  0
 16  7  1  0
 15 10  1  0
  1 26  1  0
  1 27  1  0
  2 28  1  6
  3 29  1  0
  3 30  1  0
  8 31  1  0
  9 32  1  0
 12 33  1  0
 13 34  1  0
 14 35  1  0
 16 36  1  0
 17 37  1  0
 17 38  1  0
 18 39  1  6
 22 40  1  0
 22 41  1  0
 23 42  1  0
 23 43  1  0
 24 44  1  0
 24 45  1  0
 25 46  1  0
 25 47  1  0
M  END
$$$$
