
     RDKit          3D

 46 48  0  0  0  0  0  0  0  0999 V2000
   -1.8981   -1.3274    2.1941 N   0  0  0  0  0  0  0  0  0  0  0  0
   -0.7620   -0.5075    1.7804 C   0  0  0  0  0  0  0  0  0  0  0  0
   -1.2081    0.5839    0.7818 C   0  0  1  0  0  0  0  0  0  0  0  0
   -0.0265    1.5374    0.4691 C   0  0  0  0  0  0  0  0  0  0  0  0
    0.8193    0.9992   -0.6016 N   0  0  0  0  0  0  0  0  0  0  0  0
    2.2813    0.9708   -0.4743 C   0  0  0  0  0  0  0  0  0  0  0  0
    2.7716   -0.4627   -0.2556 C   0  0  0  0  0  0  0  0  0  0  0  0
    4.2732   -0.5013   -0.1668 C   0  0  0  0  0  0  0  0  0  0  0  0
    4.9159   -0.3335    1.0686 C   0  0  0  0  0  0  0  0  0  0  0  0
    6.3118   -0.3401    1.1240 C   0  0  0  0  0  0  0  0  0  0  0  0
    7.0390   -0.4977   -0.0138 N   0  0  0  0  0  0  0  0  0  0  0  0
    6.4421   -0.6501   -1.2258 C   0  0  0  0  0  0  0  0  0  0  0  0
    5.0487   -0.6495   -1.3261 C   0  0  0  0  0  0  0  0  0  0  0  0
    0.1679    0.5864   -1.8130 C   0  0  0  0  0  0  0  0  0  0  0  0
    0.8350    0.2934   -2.8420 O   0  0  0  0  0  0  0  0  0  0  0  0
   -1.3271    0.5369   -1.8439 C   0  0  0  0  0  0  0  0  0  0  0  0
   -1.8448   -0.0502   -0.5121 C   0  0  2  0  0  0  0  0  0  0  0  0
   -3.3709   -0.0631   -0.4666 C   0  0  0  0  0  0  0  0  0  0  0  0
   -4.0315   -1.3087   -0.4843 C   0  0  0  0  0  0  0  0  0  0  0  0
   -5.4248   -1.3834   -0.4470 C   0  0  0  0  0  0  0  0  0  0  0  0
   -6.1874   -0.2175   -0.3934 C   0  0  0  0  0  0  0  0  0  0  0  0
   -7.9382   -0.3151   -0.3463 Cl  0  0  0  0  0  0  0  0  0  0  0  0
   -5.5558    1.0269   -0.3766 C   0  0  0  0  0  0  0  0  0  0  0  0
   -4.1584    1.1190   -0.4130 C   0  0  0  0  0  0  0  0  0  0  0  0
   -3.4656    2.7389   -0.3768 Cl  0  0  0  0  0  0  0  0  0  0  0  0
   -1.5354   -2.0831    2.8191 H   0  0  0  0  0  0  0  0  0  0  0  0
   -2.5338   -0.7366    2.7781 H   0  0  0  0  0  0  0  0  0  0  0  0
    0.0049   -1.1580    1.3070 H   0  0  0  0  0  0  0  0  0  0  0  0
   -0.3039   -0.0383    2.6803 H   0  0  0  0  0  0  0  0  0  0  0  0
   -1.9648    1.1957    1.3180 H   0  0  0  0  0  0  0  0  0  0  0  0
    0.5660    1.7425    1.3874 H   0  0  0  0  0  0  0  0  0  0  0  0
   -0.4354    2.5150    0.1329 H   0  0  0  0  0  0  0  0  0  0  0  0
    2.7432    1.4000   -1.3905 H   0  0  0  0  0  0  0  0  0  0  0  0
    2.6091    1.6015    0.3810 H   0  0  0  0  0  0  0  0  0  0  0  0
    2.4279   -1.1131   -1.0890 H   0  0  0  0  0  0  0  0  0  0  0  0
    2.3298   -0.8652    0.6811 H   0  0  0  0  0  0  0  0  0  0  0  0
    4.3425   -0.1978    1.9773 H   0  0  0  0  0  0  0  0  0  0  0  0
    6.8173   -0.2162    2.0724 H   0  0  0  0  0  0  0  0  0  0  0  0
    7.0495   -0.7685   -2.1132 H   0  0  0  0  0  0  0  0  0  0  0  0
    4.5794   -0.7616   -2.2957 H   0  0  0  0  0  0  0  0  0  0  0  0
   -1.7031    1.5634   -2.0166 H   0  0  0  0  0  0  0  0  0  0  0  0
   -1.6677   -0.1004   -2.6898 H   0  0  0  0  0  0  0  0  0  0  0  0
   -1.4988   -1.1093   -0.5522 H   0  0  0  0  0  0  0  0  0  0  0  0
   -3.4682   -2.2327   -0.5254 H   0  0  0  0  0  0  0  0  0  0  0  0
   -5.9105   -2.3508   -0.4601 H   0  0  0  0  0  0  0  0  0  0  0  0
   -6.1546    1.9284   -0.3335 H   0  0  0  0  0  0  0  0  0  0  0  0
  1  2  1  0
  2  3  1  0
  3  4  1  0
  4  5  1  0
  5  6  1  0
  6  7  1  0
  7  8  1  0
  8  9  2  0
  9 10  1  0
 10 11  2  0
 11 12  1  0
 12 13  2  0
  5 14  1  0
 14 15  2  0
 14 16  1  0
 16 17  1  0
 17 18  1  0
 18 19  2  0
 19 20  1  0
 20 21  2  0
 21 22  1  0
 21 23  1  0
 23 24  2  0
 24 25  1  0
 17  3  1  0
 24 18  1  0
 13  8  1  0
  1 26  1  0
  1 27  1  0
  2 28  1  0
  2 29  1  0
  3 30  1  1
  4 31  1  0
  4 32  1  0
  6 33  1  0
  6 34  1  0
  7 35  1  0
  7 36  1  0
  9 37  1  0
 10 38  1  0
 12 39  1  0
 13 40  1  0
 16 41  1  0
 16 42  1  0
 17 43  1  6
 19 44  1  0
 20 45  1  0
 23 46  1  0
M  END
$$$$
