
     RDKit          3D

 51 53  0  0  0  0  0  0  0  0999 V2000
   -1.9969   -1.7224   -2.2569 N   0  0  0  0  0  0  0  0  0  0  0  0
   -2.6292   -1.1747   -1.0530 C   0  0  1  0  0  0  0  0  0  0  0  0
   -1.9758    0.1655   -0.6358 C   0  0  0  0  0  0  0  0  0  0  0  0
   -0.5355   -0.0182   -0.2310 C   0  0  0  0  0  0  0  0  0  0  0  0
   -0.2895   -0.6547    0.8297 O   0  0  0  0  0  0  0  0  0  0  0  0
    0.5566    0.4930   -1.0231 N   0  0  0  0  0  0  0  0  0  0  0  0
    0.3973    1.1706   -2.3014 C   0  0  0  0  0  0  0  0  0  0  0  0
    1.8068    1.4798   -2.7874 C   0  0  0  0  0  0  0  0  0  0  0  0
    2.7296    0.5836   -1.9695 C   0  0  0  0  0  0  0  0  0  0  0  0
    1.9559    0.2566   -0.6885 C   0  0  1  0  0  0  0  0  0  0  0  0
    2.3790    1.1600    0.4866 C   0  0  0  0  0  0  0  0  0  0  0  0
    3.7580    0.8838    0.8889 N   0  0  0  0  0  0  0  0  0  0  0  0
    4.1198   -0.3104    1.6089 C   0  0  0  0  0  0  0  0  0  0  0  0
    3.2138   -1.1008    1.9870 O   0  0  0  0  0  0  0  0  0  0  0  0
    5.5489   -0.6836    1.9380 C   0  0  0  0  0  0  0  0  0  0  0  0
    6.5899    0.4302    2.0552 C   0  0  0  0  0  0  0  0  0  0  0  0
    6.5791   -0.4824    0.8377 C   0  0  0  0  0  0  0  0  0  0  0  0
    6.1709    0.1072   -0.3458 F   0  0  0  0  0  0  0  0  0  0  0  0
    7.6073   -1.4066    0.7969 F   0  0  0  0  0  0  0  0  0  0  0  0
   -4.1403   -1.0113   -1.3153 C   0  0  0  0  0  0  0  0  0  0  0  0
   -4.9135   -0.7057   -0.0546 C   0  0  0  0  0  0  0  0  0  0  0  0
   -5.3219    0.6109    0.2212 C   0  0  0  0  0  0  0  0  0  0  0  0
   -6.0203    0.9028    1.3969 C   0  0  0  0  0  0  0  0  0  0  0  0
   -6.4080    2.1766    1.6537 F   0  0  0  0  0  0  0  0  0  0  0  0
   -6.3157   -0.1164    2.3070 C   0  0  0  0  0  0  0  0  0  0  0  0
   -6.9924    0.1655    3.4478 F   0  0  0  0  0  0  0  0  0  0  0  0
   -5.9121   -1.4280    2.0422 C   0  0  0  0  0  0  0  0  0  0  0  0
   -5.2126   -1.7257    0.8681 C   0  0  0  0  0  0  0  0  0  0  0  0
   -4.8294   -3.0059    0.6311 F   0  0  0  0  0  0  0  0  0  0  0  0
   -0.9966   -1.9481   -2.0526 H   0  0  0  0  0  0  0  0  0  0  0  0
   -2.0163   -1.0053   -3.0182 H   0  0  0  0  0  0  0  0  0  0  0  0
   -2.4980   -1.9111   -0.2283 H   0  0  0  0  0  0  0  0  0  0  0  0
   -2.0817    0.9076   -1.4528 H   0  0  0  0  0  0  0  0  0  0  0  0
   -2.5103    0.5830    0.2432 H   0  0  0  0  0  0  0  0  0  0  0  0
   -0.1810    2.1110   -2.1737 H   0  0  0  0  0  0  0  0  0  0  0  0
   -0.1143    0.4993   -3.0229 H   0  0  0  0  0  0  0  0  0  0  0  0
    1.9142    1.2855   -3.8766 H   0  0  0  0  0  0  0  0  0  0  0  0
    2.0484    2.5457   -2.5801 H   0  0  0  0  0  0  0  0  0  0  0  0
    2.9150   -0.3567   -2.5343 H   0  0  0  0  0  0  0  0  0  0  0  0
    3.7073    1.0780   -1.7814 H   0  0  0  0  0  0  0  0  0  0  0  0
    2.1051   -0.8144   -0.4275 H   0  0  0  0  0  0  0  0  0  0  0  0
    2.2893    2.2266    0.1835 H   0  0  0  0  0  0  0  0  0  0  0  0
    1.7057    1.0097    1.3572 H   0  0  0  0  0  0  0  0  0  0  0  0
    4.4697    1.6083    0.6557 H   0  0  0  0  0  0  0  0  0  0  0  0
    5.7323   -1.5668    2.5872 H   0  0  0  0  0  0  0  0  0  0  0  0
    6.2600    1.4696    1.8662 H   0  0  0  0  0  0  0  0  0  0  0  0
    7.4092    0.2107    2.7721 H   0  0  0  0  0  0  0  0  0  0  0  0
   -4.3053   -0.2157   -2.0754 H   0  0  0  0  0  0  0  0  0  0  0  0
   -4.5383   -1.9521   -1.7553 H   0  0  0  0  0  0  0  0  0  0  0  0
   -5.0935    1.4115   -0.4716 H   0  0  0  0  0  0  0  0  0  0  0  0
   -6.1409   -2.2157    2.7487 H   0  0  0  0  0  0  0  0  0  0  0  0
  1  2  1  0
  2  3  1  0
  3  4  1  0
  4  5  2  0
  4  6  1  0
  6  7  1  0
  7  8  1  0
  8  9  1  0
  9 10  1  0
 10 11  1  0
 11 12  1  0
 12 13  1  0
 13 14  2  0
 13 15  1  0
 15 16  1  0
 16 17  1  0
 17 18  1  0
 17 19  1  0
  2 20  1  0
 20 21  1  0
 21 22  2  0
 22 23  1  0
 23 24  1  0
 23 25  2  0
 25 26  1  0
 25 27  1  0
 27 28  2  0
 28 29  1  0
 10  6  1  0
 17 15  1  0
 28 21  1  0
  1 30  1  0
  1 31  1  0
  2 32  1  1
  3 33  1  0
  3 34  1  0
  7 35  1  0
  7 36  1  0
  8 37  1  0
  8 38  1  0
  9 39  1  0
  9 40  1  0
 10 41  1  1
 11 42  1  0
 11 43  1  0
 12 44  1  0
 15 45  1  0
 16 46  1  0
 16 47  1  0
 20 48  1  0
 20 49  1  0
 22 50  1  0
 27 51  1  0
M  END
$$$$
