
     RDKit          3D

 52 54  0  0  0  0  0  0  0  0999 V2000
   -7.1629    1.4163    1.3122 N   0  0  0  0  0  0  0  0  0  0  0  0
   -6.7327    0.3810    1.0251 C   0  0  0  0  0  0  0  0  0  0  0  0
   -6.1972   -0.9094    0.6671 C   0  0  0  0  0  0  0  0  0  0  0  0
   -7.0732   -1.9104    0.2301 C   0  0  0  0  0  0  0  0  0  0  0  0
   -6.5799   -3.1657   -0.1243 C   0  0  0  0  0  0  0  0  0  0  0  0
   -5.2102   -3.4094   -0.0379 C   0  0  0  0  0  0  0  0  0  0  0  0
   -4.3708   -2.4297    0.3878 N   0  0  0  0  0  0  0  0  0  0  0  0
   -4.8151   -1.1902    0.7429 C   0  0  0  0  0  0  0  0  0  0  0  0
   -3.8741   -0.1900    1.1799 N   0  0  0  0  0  0  0  0  0  0  0  0
   -2.4282   -0.4144    1.2307 C   0  0  0  0  0  0  0  0  0  0  0  0
   -1.7111    0.4311    0.1622 C   0  0  2  0  0  0  0  0  0  0  0  0
   -2.0168   -0.0523   -1.2586 C   0  0  0  0  0  0  0  0  0  0  0  0
   -0.8423   -0.9420   -1.6482 C   0  0  0  0  0  0  0  0  0  0  0  0
    0.3235   -0.4820   -0.7833 C   0  0  0  0  0  0  0  0  0  0  0  0
   -0.2663    0.2908    0.3008 N   0  0  0  0  0  0  0  0  0  0  0  0
    0.4942    0.9653    1.3248 C   0  0  0  0  0  0  0  0  0  0  0  0
   -0.1051    1.6546    2.1942 O   0  0  0  0  0  0  0  0  0  0  0  0
    1.9989    0.9054    1.3709 C   0  0  0  0  0  0  0  0  0  0  0  0
    2.6393    2.2275    0.8949 C   0  0  2  0  0  0  0  0  0  0  0  0
    2.3640    2.4577   -0.5269 N   0  0  0  0  0  0  0  0  0  0  0  0
    4.1625    2.2452    1.1632 C   0  0  0  0  0  0  0  0  0  0  0  0
    4.9174    1.1833    0.3941 C   0  0  0  0  0  0  0  0  0  0  0  0
    5.3082    1.4236   -0.9348 C   0  0  0  0  0  0  0  0  0  0  0  0
    5.9850    0.4405   -1.6630 C   0  0  0  0  0  0  0  0  0  0  0  0
    6.3551    0.6838   -2.9447 F   0  0  0  0  0  0  0  0  0  0  0  0
    6.2791   -0.7910   -1.0709 C   0  0  0  0  0  0  0  0  0  0  0  0
    6.9346   -1.7457   -1.7763 F   0  0  0  0  0  0  0  0  0  0  0  0
    5.8986   -1.0389    0.2504 C   0  0  0  0  0  0  0  0  0  0  0  0
    5.2215   -0.0593    0.9841 C   0  0  0  0  0  0  0  0  0  0  0  0
    4.8632   -0.3252    2.2658 F   0  0  0  0  0  0  0  0  0  0  0  0
   -8.1377   -1.7196    0.1629 H   0  0  0  0  0  0  0  0  0  0  0  0
   -7.2532   -3.9425   -0.4630 H   0  0  0  0  0  0  0  0  0  0  0  0
   -4.8126   -4.3780   -0.3096 H   0  0  0  0  0  0  0  0  0  0  0  0
   -4.2103    0.7651    1.4363 H   0  0  0  0  0  0  0  0  0  0  0  0
   -2.1753   -1.4883    1.0994 H   0  0  0  0  0  0  0  0  0  0  0  0
   -2.0684   -0.1204    2.2390 H   0  0  0  0  0  0  0  0  0  0  0  0
   -2.0019    1.5008    0.2646 H   0  0  0  0  0  0  0  0  0  0  0  0
   -2.9808   -0.5964   -1.3462 H   0  0  0  0  0  0  0  0  0  0  0  0
   -2.0474    0.8246   -1.9425 H   0  0  0  0  0  0  0  0  0  0  0  0
   -1.0880   -2.0012   -1.4130 H   0  0  0  0  0  0  0  0  0  0  0  0
   -0.6073   -0.8520   -2.7310 H   0  0  0  0  0  0  0  0  0  0  0  0
    0.8736   -1.3594   -0.3801 H   0  0  0  0  0  0  0  0  0  0  0  0
    1.0090    0.1595   -1.3772 H   0  0  0  0  0  0  0  0  0  0  0  0
    2.3802    0.0576    0.7677 H   0  0  0  0  0  0  0  0  0  0  0  0
    2.2987    0.7122    2.4238 H   0  0  0  0  0  0  0  0  0  0  0  0
    2.1961    3.0625    1.4856 H   0  0  0  0  0  0  0  0  0  0  0  0
    1.3354    2.5999   -0.6496 H   0  0  0  0  0  0  0  0  0  0  0  0
    2.8018    3.3662   -0.8048 H   0  0  0  0  0  0  0  0  0  0  0  0
    4.5661    3.2461    0.8943 H   0  0  0  0  0  0  0  0  0  0  0  0
    4.3453    2.1322    2.2540 H   0  0  0  0  0  0  0  0  0  0  0  0
    5.0892    2.3733   -1.4066 H   0  0  0  0  0  0  0  0  0  0  0  0
    6.1283   -1.9929    0.7076 H   0  0  0  0  0  0  0  0  0  0  0  0
  1  2  3  0
  2  3  1  0
  3  4  2  0
  4  5  1  0
  5  6  2  0
  6  7  1  0
  7  8  2  0
  8  9  1  0
  9 10  1  0
 10 11  1  0
 11 12  1  0
 12 13  1  0
 13 14  1  0
 14 15  1  0
 15 16  1  0
 16 17  2  0
 16 18  1  0
 18 19  1  0
 19 20  1  0
 19 21  1  0
 21 22  1  0
 22 23  2  0
 23 24  1  0
 24 25  1  0
 24 26  2  0
 26 27  1  0
 26 28  1  0
 28 29  2  0
 29 30  1  0
  8  3  1  0
 15 11  1  0
 29 22  1  0
  4 31  1  0
  5 32  1  0
  6 33  1  0
  9 34  1  0
 10 35  1  0
 10 36  1  0
 11 37  1  6
 12 38  1  0
 12 39  1  0
 13 40  1  0
 13 41  1  0
 14 42  1  0
 14 43  1  0
 18 44  1  0
 18 45  1  0
 19 46  1  1
 20 47  1  0
 20 48  1  0
 21 49  1  0
 21 50  1  0
 23 51  1  0
 28 52  1  0
M  END
$$$$
