
     RDKit          3D

 38 38  0  0  0  0  0  0  0  0999 V2000
    1.3019   -0.0277    2.6753 N   0  0  0  0  0  0  0  0  0  0  0  0
    0.6708   -0.2408    1.3687 C   0  0  1  0  0  0  0  0  0  0  0  0
    1.4855   -1.2429    0.5271 C   0  0  0  0  0  0  0  0  0  0  0  0
    2.9243   -0.7800    0.2369 C   0  0  0  0  0  0  0  0  0  0  0  0
    2.9815    0.3855   -0.7599 C   0  0  0  0  0  0  0  0  0  0  0  0
    4.4001    0.6908   -1.1233 C   0  0  0  0  0  0  0  0  0  0  0  0
    4.9293    0.1373   -2.1241 O   0  0  0  0  0  0  0  0  0  0  0  0
    5.1483    1.5536   -0.3286 O   0  0  0  0  0  0  0  0  0  0  0  0
   -0.7507   -0.7456    1.5185 C   0  0  0  0  0  0  0  0  0  0  0  0
   -1.0378   -1.5068    2.4826 O   0  0  0  0  0  0  0  0  0  0  0  0
   -1.7468   -0.4937    0.5083 N   0  0  0  0  0  0  0  0  0  0  0  0
   -2.6833   -1.5301    0.1063 C   0  0  0  0  0  0  0  0  0  0  0  0
   -3.1258   -1.1586   -1.3037 C   0  0  2  0  0  0  0  0  0  0  0  0
   -2.3383   -1.8482   -2.2400 O   0  0  0  0  0  0  0  0  0  0  0  0
   -2.8757    0.3467   -1.4123 C   0  0  0  0  0  0  0  0  0  0  0  0
   -1.7761    0.6603   -0.3860 C   0  0  1  0  0  0  0  0  0  0  0  0
   -2.0488    2.0278    0.4309 B   0  0  0  0  0  0  0  0  0  0  0  0
   -3.1937    2.8804    0.1137 O   0  0  0  0  0  0  0  0  0  0  0  0
   -1.1238    2.4524    1.4785 O   0  0  0  0  0  0  0  0  0  0  0  0
    0.7189    0.6448    3.2254 H   0  0  0  0  0  0  0  0  0  0  0  0
    1.3352   -0.9289    3.2060 H   0  0  0  0  0  0  0  0  0  0  0  0
    0.6566    0.7304    0.8420 H   0  0  0  0  0  0  0  0  0  0  0  0
    0.9634   -1.4325   -0.4374 H   0  0  0  0  0  0  0  0  0  0  0  0
    1.5328   -2.2141    1.0676 H   0  0  0  0  0  0  0  0  0  0  0  0
    3.4349   -0.4957    1.1826 H   0  0  0  0  0  0  0  0  0  0  0  0
    3.4779   -1.6440   -0.1930 H   0  0  0  0  0  0  0  0  0  0  0  0
    2.4125    0.1287   -1.6801 H   0  0  0  0  0  0  0  0  0  0  0  0
    2.5307    1.2968   -0.3150 H   0  0  0  0  0  0  0  0  0  0  0  0
    6.1151    1.7582   -0.5517 H   0  0  0  0  0  0  0  0  0  0  0  0
   -3.5501   -1.5315    0.8022 H   0  0  0  0  0  0  0  0  0  0  0  0
   -2.1972   -2.5310    0.1190 H   0  0  0  0  0  0  0  0  0  0  0  0
   -4.2040   -1.4044   -1.4482 H   0  0  0  0  0  0  0  0  0  0  0  0
   -2.7971   -1.7592   -3.1160 H   0  0  0  0  0  0  0  0  0  0  0  0
   -3.8324    0.8624   -1.1783 H   0  0  0  0  0  0  0  0  0  0  0  0
   -2.5642    0.6426   -2.4382 H   0  0  0  0  0  0  0  0  0  0  0  0
   -0.8055    0.7412   -0.9209 H   0  0  0  0  0  0  0  0  0  0  0  0
   -3.9150    2.5649    0.7149 H   0  0  0  0  0  0  0  0  0  0  0  0
   -0.4533    3.0109    1.0098 H   0  0  0  0  0  0  0  0  0  0  0  0
  1  2  1  0
  2  3  1  0
  3  4  1  0
  4  5  1  0
  5  6  1  0
  6  7  2  0
  6  8  1  0
  2  9  1  0
  9 10  2  0
  9 11  1  0
 11 12  1  0
 12 13  1  0
 13 14  1  0
 13 15  1  0
 15 16  1  0
 16 17  1  0
 17 18  1  0
 17 19  1  0
 16 11  1  0
  1 20  1  0
  1 21  1  0
  2 22  1  6
  3 23  1  0
  3 24  1  0
  4 25  1  0
  4 26  1  0
  5 27  1  0
  5 28  1  0
  8 29  1  0
 12 30  1  0
 12 31  1  0
 13 32  1  1
 14 33  1  0
 15 34  1  0
 15 35  1  0
 16 36  1  6
 18 37  1  0
 19 38  1  0
M  END
$$$$
