
     RDKit          3D

 61 64  0  0  0  0  0  0  0  0999 V2000
    3.8478   -0.2153   -1.4665 N   0  0  0  0  0  0  0  0  0  0  0  0
    2.4811    0.3153   -1.4231 C   0  0  1  0  0  0  0  0  0  0  0  0
    1.7665   -0.0486   -0.0995 C   0  0  0  0  0  0  0  0  0  0  0  0
    1.3645   -1.4996   -0.0568 C   0  0  0  0  0  0  0  0  0  0  0  0
    2.2109   -2.3421    0.3477 O   0  0  0  0  0  0  0  0  0  0  0  0
    0.0573   -1.9471   -0.4847 N   0  0  0  0  0  0  0  0  0  0  0  0
   -0.8896   -1.1166   -1.2229 C   0  0  2  0  0  0  0  0  0  0  0  0
   -1.6051   -0.1678   -0.2943 C   0  0  0  0  0  0  0  0  0  0  0  0
   -2.0396   -0.5868    0.8128 O   0  0  0  0  0  0  0  0  0  0  0  0
   -1.7511    1.2145   -0.6601 N   0  0  0  0  0  0  0  0  0  0  0  0
   -2.4191    2.1923    0.1532 C   0  0  0  0  0  0  0  0  0  0  0  0
   -3.6120    1.8884    0.8346 C   0  0  0  0  0  0  0  0  0  0  0  0
   -4.2508    2.8648    1.6057 C   0  0  0  0  0  0  0  0  0  0  0  0
   -3.7134    4.1518    1.6929 C   0  0  0  0  0  0  0  0  0  0  0  0
   -2.5413    4.4676    1.0011 C   0  0  0  0  0  0  0  0  0  0  0  0
   -1.9009    3.4948    0.2276 C   0  0  0  0  0  0  0  0  0  0  0  0
   -1.8669   -2.0842   -1.8938 C   0  0  0  0  0  0  0  0  0  0  0  0
   -1.6807   -3.4451   -1.2075 C   0  0  2  0  0  0  0  0  0  0  0  0
   -2.8898   -3.7968   -0.3161 C   0  0  0  0  0  0  0  0  0  0  0  0
   -2.6394   -5.0813    0.4890 C   0  0  0  0  0  0  0  0  0  0  0  0
   -1.2312   -5.1519    1.1190 C   0  0  0  0  0  0  0  0  0  0  0  0
   -0.4748   -3.8212    1.0422 C   0  0  0  0  0  0  0  0  0  0  0  0
   -0.3511   -3.3478   -0.4223 C   0  0  2  0  0  0  0  0  0  0  0  0
    2.4862    1.8376   -1.6822 C   0  0  0  0  0  0  0  0  0  0  0  0
    3.1766    2.6341   -0.5980 C   0  0  0  0  0  0  0  0  0  0  0  0
    2.4349    3.1327    0.4878 C   0  0  0  0  0  0  0  0  0  0  0  0
    3.0661    3.8564    1.5035 C   0  0  0  0  0  0  0  0  0  0  0  0
    2.3402    4.3302    2.5464 F   0  0  0  0  0  0  0  0  0  0  0  0
    4.4427    4.0911    1.4439 C   0  0  0  0  0  0  0  0  0  0  0  0
    5.0564    4.7928    2.4287 F   0  0  0  0  0  0  0  0  0  0  0  0
    5.1882    3.6041    0.3669 C   0  0  0  0  0  0  0  0  0  0  0  0
    4.5621    2.8793   -0.6525 C   0  0  0  0  0  0  0  0  0  0  0  0
    5.3062    2.4220   -1.6914 F   0  0  0  0  0  0  0  0  0  0  0  0
    3.8030   -1.2566   -1.5491 H   0  0  0  0  0  0  0  0  0  0  0  0
    4.3438    0.0039   -0.5722 H   0  0  0  0  0  0  0  0  0  0  0  0
    1.9147   -0.1365   -2.2673 H   0  0  0  0  0  0  0  0  0  0  0  0
    2.4299    0.1692    0.7657 H   0  0  0  0  0  0  0  0  0  0  0  0
    0.8734    0.5887    0.0372 H   0  0  0  0  0  0  0  0  0  0  0  0
   -0.3565   -0.5477   -2.0135 H   0  0  0  0  0  0  0  0  0  0  0  0
   -1.2163    1.5591   -1.4894 H   0  0  0  0  0  0  0  0  0  0  0  0
   -4.0632    0.9086    0.7522 H   0  0  0  0  0  0  0  0  0  0  0  0
   -5.1675    2.6258    2.1292 H   0  0  0  0  0  0  0  0  0  0  0  0
   -4.2098    4.9063    2.2894 H   0  0  0  0  0  0  0  0  0  0  0  0
   -2.1298    5.4669    1.0623 H   0  0  0  0  0  0  0  0  0  0  0  0
   -0.9940    3.7515   -0.3056 H   0  0  0  0  0  0  0  0  0  0  0  0
   -1.5916   -2.1857   -2.9673 H   0  0  0  0  0  0  0  0  0  0  0  0
   -2.9194   -1.7221   -1.8587 H   0  0  0  0  0  0  0  0  0  0  0  0
   -1.5900   -4.2372   -1.9855 H   0  0  0  0  0  0  0  0  0  0  0  0
   -3.1018   -2.9636    0.3881 H   0  0  0  0  0  0  0  0  0  0  0  0
   -3.7933   -3.9353   -0.9491 H   0  0  0  0  0  0  0  0  0  0  0  0
   -3.4077   -5.1509    1.2895 H   0  0  0  0  0  0  0  0  0  0  0  0
   -2.7816   -5.9595   -0.1783 H   0  0  0  0  0  0  0  0  0  0  0  0
   -0.6337   -5.9306    0.5953 H   0  0  0  0  0  0  0  0  0  0  0  0
   -1.3148   -5.4617    2.1833 H   0  0  0  0  0  0  0  0  0  0  0  0
    0.5356   -3.9586    1.4820 H   0  0  0  0  0  0  0  0  0  0  0  0
   -1.0056   -3.0581    1.6525 H   0  0  0  0  0  0  0  0  0  0  0  0
    0.4140   -3.9701   -0.9392 H   0  0  0  0  0  0  0  0  0  0  0  0
    1.4362    2.1896   -1.7899 H   0  0  0  0  0  0  0  0  0  0  0  0
    2.9737    2.0370   -2.6614 H   0  0  0  0  0  0  0  0  0  0  0  0
    1.3676    2.9605    0.5479 H   0  0  0  0  0  0  0  0  0  0  0  0
    6.2537    3.7893    0.3211 H   0  0  0  0  0  0  0  0  0  0  0  0
  1  2  1  0
  2  3  1  0
  3  4  1  0
  4  5  2  0
  4  6  1  0
  6  7  1  0
  7  8  1  0
  8  9  2  0
  8 10  1  0
 10 11  1  0
 11 12  2  0
 12 13  1  0
 13 14  2  0
 14 15  1  0
 15 16  2  0
  7 17  1  0
 17 18  1  0
 18 19  1  0
 19 20  1  0
 20 21  1  0
 21 22  1  0
 22 23  1  0
  2 24  1  0
 24 25  1  0
 25 26  2  0
 26 27  1  0
 27 28  1  0
 27 29  2  0
 29 30  1  0
 29 31  1  0
 31 32  2  0
 32 33  1  0
 23  6  1  0
 32 25  1  0
 16 11  1  0
 23 18  1  0
  1 34  1  0
  1 35  1  0
  2 36  1  6
  3 37  1  0
  3 38  1  0
  7 39  1  6
 10 40  1  0
 12 41  1  0
 13 42  1  0
 14 43  1  0
 15 44  1  0
 16 45  1  0
 17 46  1  0
 17 47  1  0
 18 48  1  6
 19 49  1  0
 19 50  1  0
 20 51  1  0
 20 52  1  0
 21 53  1  0
 21 54  1  0
 22 55  1  0
 22 56  1  0
 23 57  1  6
 24 58  1  0
 24 59  1  0
 26 60  1  0
 31 61  1  0
M  END
$$$$
