
     RDKit          3D

 58 62  0  0  0  0  0  0  0  0999 V2000
   -4.9103   -2.4621   -3.1912 C   0  0  0  0  0  0  0  0  0  0  0  0
   -4.7654   -2.8699   -1.7550 C   0  0  0  0  0  0  0  0  0  0  0  0
   -5.6250   -3.8314   -1.2033 C   0  0  0  0  0  0  0  0  0  0  0  0
   -5.5182   -4.1790    0.1454 C   0  0  0  0  0  0  0  0  0  0  0  0
   -4.5608   -3.5641    0.9561 C   0  0  0  0  0  0  0  0  0  0  0  0
   -3.6976   -2.5936    0.4213 C   0  0  0  0  0  0  0  0  0  0  0  0
   -2.6866   -1.9031    1.3003 C   0  0  0  0  0  0  0  0  0  0  0  0
   -3.1321   -0.4905    1.5841 C   0  0  0  0  0  0  0  0  0  0  0  0
   -2.2694    0.5356    1.5023 C   0  0  0  0  0  0  0  0  0  0  0  0
   -2.6675    1.9241    1.8499 C   0  0  0  0  0  0  0  0  0  0  0  0
   -3.9856    2.3866    1.6576 C   0  0  0  0  0  0  0  0  0  0  0  0
   -4.3270    3.7047    1.9762 C   0  0  0  0  0  0  0  0  0  0  0  0
   -3.3609    4.5774    2.4810 C   0  0  0  0  0  0  0  0  0  0  0  0
   -2.0492    4.1356    2.6641 C   0  0  0  0  0  0  0  0  0  0  0  0
   -1.7017    2.8189    2.3478 C   0  0  0  0  0  0  0  0  0  0  0  0
   -0.9190    0.2935    1.0846 N   0  0  0  0  0  0  0  0  0  0  0  0
   -0.5086   -0.8733    0.6923 C   0  0  0  0  0  0  0  0  0  0  0  0
    0.8431   -1.0735    0.2515 N   0  0  0  0  0  0  0  0  0  0  0  0
    1.8560   -0.0552    0.2041 C   0  0  0  0  0  0  0  0  0  0  0  0
    1.5868    1.2228    0.5786 N   0  0  0  0  0  0  0  0  0  0  0  0
    2.5549    2.1710    0.5267 C   0  0  0  0  0  0  0  0  0  0  0  0
    2.2648    3.5101    0.9205 N   0  0  0  0  0  0  0  0  0  0  0  0
    3.7994    1.8419    0.0984 N   0  0  0  0  0  0  0  0  0  0  0  0
    4.0839    0.5669   -0.2800 C   0  0  0  0  0  0  0  0  0  0  0  0
    5.4087    0.2178   -0.7354 N   0  0  0  0  0  0  0  0  0  0  0  0
    5.7551   -1.1927   -0.9600 C   0  0  0  0  0  0  0  0  0  0  0  0
    6.9360   -1.3082   -1.9283 C   0  0  0  0  0  0  0  0  0  0  0  0
    8.0071   -0.4837   -1.5159 O   0  0  0  0  0  0  0  0  0  0  0  0
    7.6200    0.8722   -1.6107 C   0  0  0  0  0  0  0  0  0  0  0  0
    6.5030    1.1910   -0.6127 C   0  0  0  0  0  0  0  0  0  0  0  0
    3.1043   -0.3754   -0.2237 N   0  0  0  0  0  0  0  0  0  0  0  0
   -1.3991   -1.9509    0.6759 O   0  0  0  0  0  0  0  0  0  0  0  0
   -3.8162   -2.2405   -0.9348 C   0  0  0  0  0  0  0  0  0  0  0  0
   -3.9300   -2.1490   -3.6097 H   0  0  0  0  0  0  0  0  0  0  0  0
   -5.2899   -3.3080   -3.8032 H   0  0  0  0  0  0  0  0  0  0  0  0
   -5.6227   -1.6141   -3.2639 H   0  0  0  0  0  0  0  0  0  0  0  0
   -6.3792   -4.3096   -1.8162 H   0  0  0  0  0  0  0  0  0  0  0  0
   -6.1833   -4.9227    0.5652 H   0  0  0  0  0  0  0  0  0  0  0  0
   -4.4980   -3.8410    2.0011 H   0  0  0  0  0  0  0  0  0  0  0  0
   -2.6056   -2.4269    2.2774 H   0  0  0  0  0  0  0  0  0  0  0  0
   -4.1383   -0.3407    1.9554 H   0  0  0  0  0  0  0  0  0  0  0  0
   -4.7479    1.7429    1.2389 H   0  0  0  0  0  0  0  0  0  0  0  0
   -5.3408    4.0521    1.8238 H   0  0  0  0  0  0  0  0  0  0  0  0
   -3.6275    5.5975    2.7252 H   0  0  0  0  0  0  0  0  0  0  0  0
   -1.2999    4.8137    3.0517 H   0  0  0  0  0  0  0  0  0  0  0  0
   -0.6795    2.4973    2.5040 H   0  0  0  0  0  0  0  0  0  0  0  0
    1.1078   -2.0364   -0.0559 H   0  0  0  0  0  0  0  0  0  0  0  0
    1.3077    3.7697    1.2474 H   0  0  0  0  0  0  0  0  0  0  0  0
    3.0064    4.2441    0.8838 H   0  0  0  0  0  0  0  0  0  0  0  0
    6.0237   -1.6608    0.0117 H   0  0  0  0  0  0  0  0  0  0  0  0
    4.8957   -1.7461   -1.3961 H   0  0  0  0  0  0  0  0  0  0  0  0
    7.2856   -2.3621   -1.9383 H   0  0  0  0  0  0  0  0  0  0  0  0
    6.6141   -1.0641   -2.9670 H   0  0  0  0  0  0  0  0  0  0  0  0
    7.3027    1.1309   -2.6471 H   0  0  0  0  0  0  0  0  0  0  0  0
    8.4995    1.5075   -1.3745 H   0  0  0  0  0  0  0  0  0  0  0  0
    6.9073    1.1557    0.4220 H   0  0  0  0  0  0  0  0  0  0  0  0
    6.1403    2.2213   -0.8180 H   0  0  0  0  0  0  0  0  0  0  0  0
   -3.1709   -1.4744   -1.3490 H   0  0  0  0  0  0  0  0  0  0  0  0
  1  2  1  0
  2  3  2  0
  3  4  1  0
  4  5  2  0
  5  6  1  0
  6  7  1  0
  7  8  1  0
  8  9  2  0
  9 10  1  0
 10 11  2  0
 11 12  1  0
 12 13  2  0
 13 14  1  0
 14 15  2  0
  9 16  1  0
 16 17  2  0
 17 18  1  0
 18 19  1  0
 19 20  2  0
 20 21  1  0
 21 22  1  0
 21 23  2  0
 23 24  1  0
 24 25  1  0
 25 26  1  0
 26 27  1  0
 27 28  1  0
 28 29  1  0
 29 30  1  0
 24 31  2  0
 17 32  1  0
  6 33  2  0
 33  2  1  0
 32  7  1  0
 15 10  1  0
 31 19  1  0
 30 25  1  0
  1 34  1  0
  1 35  1  0
  1 36  1  0
  3 37  1  0
  4 38  1  0
  5 39  1  0
  7 40  1  0
  8 41  1  0
 11 42  1  0
 12 43  1  0
 13 44  1  0
 14 45  1  0
 15 46  1  0
 18 47  1  0
 22 48  1  0
 22 49  1  0
 26 50  1  0
 26 51  1  0
 27 52  1  0
 27 53  1  0
 29 54  1  0
 29 55  1  0
 30 56  1  0
 30 57  1  0
 33 58  1  0
M  END
$$$$
