
     RDKit          3D

 60 63  0  0  0  0  0  0  0  0999 V2000
   -0.4940    5.6944   -1.5558 C   0  0  0  0  0  0  0  0  0  0  0  0
   -0.5575    4.2660   -1.1028 C   0  0  0  0  0  0  0  0  0  0  0  0
   -0.6120    3.9603    0.2661 C   0  0  0  0  0  0  0  0  0  0  0  0
   -0.7073    2.6311    0.6879 C   0  0  0  0  0  0  0  0  0  0  0  0
   -0.7660    1.5959   -0.2550 C   0  0  0  0  0  0  0  0  0  0  0  0
   -0.8533    0.1869    0.1920 C   0  0  0  0  0  0  0  0  0  0  0  0
   -2.1202   -0.4044    0.4432 C   0  0  0  0  0  0  0  0  0  0  0  0
   -3.3890    0.4167    0.2779 C   0  0  0  0  0  0  0  0  0  0  0  0
   -3.6076    1.2415    1.4615 N   0  0  0  0  0  0  0  0  0  0  0  0
   -2.1620   -1.7428    0.9158 C   0  0  0  0  0  0  0  0  0  0  0  0
   -3.4491   -2.4729    1.2194 C   0  0  0  0  0  0  0  0  0  0  0  0
   -4.0695   -3.1073   -0.0459 C   0  0  0  0  0  0  0  0  0  0  0  0
   -5.4909   -3.5984    0.2530 C   0  0  0  0  0  0  0  0  0  0  0  0
   -3.2131   -4.2679   -0.5740 C   0  0  0  0  0  0  0  0  0  0  0  0
   -1.0041   -2.4333    1.0818 N   0  0  0  0  0  0  0  0  0  0  0  0
    0.2152   -1.9005    0.8301 C   0  0  0  0  0  0  0  0  0  0  0  0
    1.3582   -2.6792    1.0253 C   0  0  0  0  0  0  0  0  0  0  0  0
    2.6239   -2.1473    0.7792 C   0  0  0  0  0  0  0  0  0  0  0  0
    2.7694   -0.8221    0.3332 C   0  0  0  0  0  0  0  0  0  0  0  0
    4.0835   -0.2699    0.0817 N   0  0  0  0  0  0  0  0  0  0  0  0
    4.3356    1.1559    0.3790 C   0  0  0  0  0  0  0  0  0  0  0  0
    5.8264    1.4427    0.5669 C   0  0  0  0  0  0  0  0  0  0  0  0
    6.5671    0.9384   -0.5790 N   0  0  0  0  0  0  0  0  0  0  0  0
    6.2487   -0.3513   -1.0974 C   0  0  0  0  0  0  0  0  0  0  0  0
    6.9179   -0.8327   -2.0498 O   0  0  0  0  0  0  0  0  0  0  0  0
    5.1365   -1.1439   -0.4764 C   0  0  0  0  0  0  0  0  0  0  0  0
    1.6139   -0.0418    0.1352 C   0  0  0  0  0  0  0  0  0  0  0  0
    0.3277   -0.5708    0.3797 C   0  0  0  0  0  0  0  0  0  0  0  0
   -0.7256    1.8989   -1.6230 C   0  0  0  0  0  0  0  0  0  0  0  0
   -0.6299    3.2281   -2.0450 C   0  0  0  0  0  0  0  0  0  0  0  0
   -1.5242    6.0905   -1.6728 H   0  0  0  0  0  0  0  0  0  0  0  0
    0.0517    6.3165   -0.8146 H   0  0  0  0  0  0  0  0  0  0  0  0
    0.0377    5.7738   -2.5279 H   0  0  0  0  0  0  0  0  0  0  0  0
   -0.5785    4.7502    1.0063 H   0  0  0  0  0  0  0  0  0  0  0  0
   -0.7383    2.4075    1.7472 H   0  0  0  0  0  0  0  0  0  0  0  0
   -3.3063    1.0715   -0.6155 H   0  0  0  0  0  0  0  0  0  0  0  0
   -4.2813   -0.2130    0.0874 H   0  0  0  0  0  0  0  0  0  0  0  0
   -4.4448    1.8419    1.2827 H   0  0  0  0  0  0  0  0  0  0  0  0
   -3.8558    0.6128    2.2595 H   0  0  0  0  0  0  0  0  0  0  0  0
   -4.1693   -1.7840    1.7082 H   0  0  0  0  0  0  0  0  0  0  0  0
   -3.2492   -3.2700    1.9697 H   0  0  0  0  0  0  0  0  0  0  0  0
   -4.1395   -2.3416   -0.8489 H   0  0  0  0  0  0  0  0  0  0  0  0
   -6.1276   -2.7502    0.5838 H   0  0  0  0  0  0  0  0  0  0  0  0
   -5.9484   -4.0330   -0.6614 H   0  0  0  0  0  0  0  0  0  0  0  0
   -5.4786   -4.3716    1.0512 H   0  0  0  0  0  0  0  0  0  0  0  0
   -2.2139   -3.9013   -0.8892 H   0  0  0  0  0  0  0  0  0  0  0  0
   -3.0827   -5.0478    0.2068 H   0  0  0  0  0  0  0  0  0  0  0  0
   -3.6966   -4.7286   -1.4618 H   0  0  0  0  0  0  0  0  0  0  0  0
    1.2678   -3.7009    1.3739 H   0  0  0  0  0  0  0  0  0  0  0  0
    3.4901   -2.7709    0.9544 H   0  0  0  0  0  0  0  0  0  0  0  0
    3.8064    1.4468    1.3129 H   0  0  0  0  0  0  0  0  0  0  0  0
    3.9482    1.7793   -0.4556 H   0  0  0  0  0  0  0  0  0  0  0  0
    5.9939    2.5358    0.6757 H   0  0  0  0  0  0  0  0  0  0  0  0
    6.1870    0.9347    1.4874 H   0  0  0  0  0  0  0  0  0  0  0  0
    7.2805    1.5375   -1.0519 H   0  0  0  0  0  0  0  0  0  0  0  0
    4.6960   -1.8051   -1.2548 H   0  0  0  0  0  0  0  0  0  0  0  0
    5.5606   -1.7759    0.3319 H   0  0  0  0  0  0  0  0  0  0  0  0
    1.7247    0.9712   -0.2247 H   0  0  0  0  0  0  0  0  0  0  0  0
   -0.7718    1.1061   -2.3596 H   0  0  0  0  0  0  0  0  0  0  0  0
   -0.6105    3.4476   -3.1053 H   0  0  0  0  0  0  0  0  0  0  0  0
  1  2  1  0
  2  3  2  0
  3  4  1  0
  4  5  2  0
  5  6  1  0
  6  7  2  0
  7  8  1  0
  8  9  1  0
  7 10  1  0
 10 11  1  0
 11 12  1  0
 12 13  1  0
 12 14  1  0
 10 15  2  0
 15 16  1  0
 16 17  2  0
 17 18  1  0
 18 19  2  0
 19 20  1  0
 20 21  1  0
 21 22  1  0
 22 23  1  0
 23 24  1  0
 24 25  2  0
 24 26  1  0
 19 27  1  0
 27 28  2  0
  5 29  1  0
 29 30  2  0
 30  2  1  0
 28  6  1  0
 28 16  1  0
 26 20  1  0
  1 31  1  0
  1 32  1  0
  1 33  1  0
  3 34  1  0
  4 35  1  0
  8 36  1  0
  8 37  1  0
  9 38  1  0
  9 39  1  0
 11 40  1  0
 11 41  1  0
 12 42  1  0
 13 43  1  0
 13 44  1  0
 13 45  1  0
 14 46  1  0
 14 47  1  0
 14 48  1  0
 17 49  1  0
 18 50  1  0
 21 51  1  0
 21 52  1  0
 22 53  1  0
 22 54  1  0
 23 55  1  0
 26 56  1  0
 26 57  1  0
 27 58  1  0
 29 59  1  0
 30 60  1  0
M  END
$$$$
