
     RDKit          3D

 62 65  0  0  0  0  0  0  0  0999 V2000
   -0.5023   -0.9579    4.0113 C   0  0  0  0  0  0  0  0  0  0  0  0
   -0.6553    0.3478    3.3690 N   0  0  0  0  0  0  0  0  0  0  0  0
   -0.1890    1.5451    4.0659 C   0  0  0  0  0  0  0  0  0  0  0  0
   -1.5748    0.5012    2.2773 C   0  0  0  0  0  0  0  0  0  0  0  0
   -2.6641    1.1047    2.4772 O   0  0  0  0  0  0  0  0  0  0  0  0
   -1.2586   -0.0073    0.8798 C   0  0  1  0  0  0  0  0  0  0  0  0
    0.1773    0.4576    0.4371 C   0  0  1  0  0  0  0  0  0  0  0  0
    1.3617   -0.3890    0.9888 C   0  0  0  0  0  0  0  0  0  0  0  0
    2.6556   -0.2463    0.1585 C   0  0  0  0  0  0  0  0  0  0  0  0
    2.7744    1.1513   -0.4794 C   0  0  1  0  0  0  0  0  0  0  0  0
    4.1142    1.3383   -1.1686 C   0  0  0  0  0  0  0  0  0  0  0  0
    5.0091    2.3375   -0.7305 C   0  0  0  0  0  0  0  0  0  0  0  0
    6.2490    2.5001   -1.3776 C   0  0  0  0  0  0  0  0  0  0  0  0
    6.6002    1.6756   -2.4561 C   0  0  0  0  0  0  0  0  0  0  0  0
    5.6822    0.7074   -2.8494 C   0  0  0  0  0  0  0  0  0  0  0  0
    5.8306   -0.1711   -3.8567 N   0  0  0  0  0  0  0  0  0  0  0  0
    4.6590   -0.8536   -3.7928 C   0  0  0  0  0  0  0  0  0  0  0  0
    3.8448   -0.4162   -2.8047 N   0  0  0  0  0  0  0  0  0  0  0  0
    4.5077    0.5650   -2.2232 N   0  0  0  0  0  0  0  0  0  0  0  0
    1.5903    1.4583   -1.4339 C   0  0  0  0  0  0  0  0  0  0  0  0
    0.3151    0.6622   -1.0898 C   0  0  0  0  0  0  0  0  0  0  0  0
   -1.5989   -1.5314    0.7459 C   0  0  2  0  0  0  0  0  0  0  0  0
   -1.4018   -2.0603   -0.6063 N   0  0  0  0  0  0  0  0  0  0  0  0
   -3.0099   -1.8447    1.2141 C   0  0  0  0  0  0  0  0  0  0  0  0
   -3.1425   -2.5261    2.2677 O   0  0  0  0  0  0  0  0  0  0  0  0
   -4.1961   -1.3590    0.5484 N   0  0  0  0  0  0  0  0  0  0  0  0
   -5.4961   -1.3675    1.2023 C   0  0  0  0  0  0  0  0  0  0  0  0
   -6.5206   -1.1094    0.1064 C   0  0  0  0  0  0  0  0  0  0  0  0
   -5.7325   -0.5475   -1.0714 C   0  0  2  0  0  0  0  0  0  0  0  0
   -6.2245   -1.0273   -2.2738 F   0  0  0  0  0  0  0  0  0  0  0  0
   -4.2896   -0.9858   -0.8552 C   0  0  0  0  0  0  0  0  0  0  0  0
   -1.4957   -1.4324    4.1532 H   0  0  0  0  0  0  0  0  0  0  0  0
    0.1400   -1.6146    3.3927 H   0  0  0  0  0  0  0  0  0  0  0  0
   -0.0242   -0.8565    5.0092 H   0  0  0  0  0  0  0  0  0  0  0  0
   -0.8718    1.7770    4.9102 H   0  0  0  0  0  0  0  0  0  0  0  0
   -0.1585    2.4128    3.3721 H   0  0  0  0  0  0  0  0  0  0  0  0
    0.8380    1.3820    4.4561 H   0  0  0  0  0  0  0  0  0  0  0  0
   -1.9622    0.5350    0.2164 H   0  0  0  0  0  0  0  0  0  0  0  0
    0.3033    1.4806    0.8634 H   0  0  0  0  0  0  0  0  0  0  0  0
    1.5799   -0.0668    2.0288 H   0  0  0  0  0  0  0  0  0  0  0  0
    1.1173   -1.4669    1.0219 H   0  0  0  0  0  0  0  0  0  0  0  0
    2.6544   -1.0254   -0.6329 H   0  0  0  0  0  0  0  0  0  0  0  0
    3.5328   -0.4389    0.8147 H   0  0  0  0  0  0  0  0  0  0  0  0
    2.7104    1.8798    0.3613 H   0  0  0  0  0  0  0  0  0  0  0  0
    4.7560    2.9843    0.1000 H   0  0  0  0  0  0  0  0  0  0  0  0
    6.9353    3.2663   -1.0412 H   0  0  0  0  0  0  0  0  0  0  0  0
    7.5495    1.7903   -2.9632 H   0  0  0  0  0  0  0  0  0  0  0  0
    4.4024   -1.6629   -4.4627 H   0  0  0  0  0  0  0  0  0  0  0  0
    1.3644    2.5459   -1.3763 H   0  0  0  0  0  0  0  0  0  0  0  0
    1.8541    1.2474   -2.4921 H   0  0  0  0  0  0  0  0  0  0  0  0
   -0.5647    1.2063   -1.4966 H   0  0  0  0  0  0  0  0  0  0  0  0
    0.3782   -0.3173   -1.6042 H   0  0  0  0  0  0  0  0  0  0  0  0
   -0.9278   -2.0982    1.4221 H   0  0  0  0  0  0  0  0  0  0  0  0
   -1.6464   -1.3434   -1.3237 H   0  0  0  0  0  0  0  0  0  0  0  0
   -0.3945   -2.3087   -0.7344 H   0  0  0  0  0  0  0  0  0  0  0  0
   -5.5298   -0.5628    1.9683 H   0  0  0  0  0  0  0  0  0  0  0  0
   -5.6902   -2.3518    1.6818 H   0  0  0  0  0  0  0  0  0  0  0  0
   -7.3042   -0.3971    0.4448 H   0  0  0  0  0  0  0  0  0  0  0  0
   -7.0019   -2.0692   -0.1850 H   0  0  0  0  0  0  0  0  0  0  0  0
   -5.7942    0.5633   -1.0634 H   0  0  0  0  0  0  0  0  0  0  0  0
   -4.0512   -1.8666   -1.4900 H   0  0  0  0  0  0  0  0  0  0  0  0
   -3.6132   -0.1430   -1.0962 H   0  0  0  0  0  0  0  0  0  0  0  0
  1  2  1  0
  2  3  1  0
  2  4  1  0
  4  5  2  0
  4  6  1  0
  6  7  1  0
  7  8  1  0
  8  9  1  0
  9 10  1  0
 10 11  1  0
 11 12  2  0
 12 13  1  0
 13 14  2  0
 14 15  1  0
 15 16  2  0
 16 17  1  0
 17 18  2  0
 18 19  1  0
 10 20  1  0
 20 21  1  0
  6 22  1  0
 22 23  1  0
 22 24  1  0
 24 25  2  0
 24 26  1  0
 26 27  1  0
 27 28  1  0
 28 29  1  0
 29 30  1  0
 29 31  1  0
 21  7  1  0
 31 26  1  0
 19 11  1  0
 19 15  1  0
  1 32  1  0
  1 33  1  0
  1 34  1  0
  3 35  1  0
  3 36  1  0
  3 37  1  0
  6 38  1  6
  7 39  1  1
  8 40  1  0
  8 41  1  0
  9 42  1  0
  9 43  1  0
 10 44  1  1
 12 45  1  0
 13 46  1  0
 14 47  1  0
 17 48  1  0
 20 49  1  0
 20 50  1  0
 21 51  1  0
 21 52  1  0
 22 53  1  1
 23 54  1  0
 23 55  1  0
 27 56  1  0
 27 57  1  0
 28 58  1  0
 28 59  1  0
 29 60  1  6
 31 61  1  0
 31 62  1  0
M  END
$$$$
