
     RDKit          3D

 47 49  0  0  0  0  0  0  0  0999 V2000
    1.8658    0.2802   -2.0921 C   0  0  0  0  0  0  0  0  0  0  0  0
    1.0204    1.3346   -1.3569 C   0  0  1  0  0  0  0  0  0  0  0  0
   -0.3570    0.8099   -0.9741 C   0  0  0  0  0  0  0  0  0  0  0  0
   -1.4811    1.6373   -1.1376 C   0  0  0  0  0  0  0  0  0  0  0  0
   -2.7524    1.1969   -0.7602 C   0  0  0  0  0  0  0  0  0  0  0  0
   -2.9290   -0.0792   -0.1990 C   0  0  0  0  0  0  0  0  0  0  0  0
   -4.2797   -0.5476    0.2043 C   0  0  0  0  0  0  0  0  0  0  0  0
   -5.1829    0.3289    0.8354 C   0  0  0  0  0  0  0  0  0  0  0  0
   -6.4534   -0.1153    1.2146 C   0  0  0  0  0  0  0  0  0  0  0  0
   -6.8371   -1.4358    0.9684 C   0  0  0  0  0  0  0  0  0  0  0  0
   -8.0697   -1.8638    1.3367 F   0  0  0  0  0  0  0  0  0  0  0  0
   -5.9500   -2.3149    0.3427 C   0  0  0  0  0  0  0  0  0  0  0  0
   -4.6780   -1.8761   -0.0376 C   0  0  0  0  0  0  0  0  0  0  0  0
   -1.8045   -0.9023   -0.0194 C   0  0  0  0  0  0  0  0  0  0  0  0
   -0.5333   -0.4620   -0.3965 C   0  0  0  0  0  0  0  0  0  0  0  0
    1.7420    1.9854   -0.1418 C   0  0  2  0  0  0  0  0  0  0  0  0
    2.9752    2.6562   -0.5572 N   0  0  0  0  0  0  0  0  0  0  0  0
    1.9955    1.0063    0.9919 C   0  0  0  0  0  0  0  0  0  0  0  0
    1.1535    0.9584    1.9299 O   0  0  0  0  0  0  0  0  0  0  0  0
    3.0969    0.0757    0.9997 N   0  0  0  0  0  0  0  0  0  0  0  0
    4.4137    0.3214    0.4312 C   0  0  0  0  0  0  0  0  0  0  0  0
    5.2904   -0.8316    0.9039 C   0  0  0  0  0  0  0  0  0  0  0  0
    4.3303   -1.9095    1.3985 C   0  0  2  0  0  0  0  0  0  0  0  0
    4.1069   -2.8331    0.3900 F   0  0  0  0  0  0  0  0  0  0  0  0
    3.0343   -1.1811    1.7260 C   0  0  0  0  0  0  0  0  0  0  0  0
    2.1653   -0.5523   -1.4252 H   0  0  0  0  0  0  0  0  0  0  0  0
    1.2872   -0.1415   -2.9416 H   0  0  0  0  0  0  0  0  0  0  0  0
    2.7826    0.7486   -2.5079 H   0  0  0  0  0  0  0  0  0  0  0  0
    0.8652    2.1457   -2.1043 H   0  0  0  0  0  0  0  0  0  0  0  0
   -1.3753    2.6290   -1.5598 H   0  0  0  0  0  0  0  0  0  0  0  0
   -3.6000    1.8512   -0.9206 H   0  0  0  0  0  0  0  0  0  0  0  0
   -4.9008    1.3516    1.0518 H   0  0  0  0  0  0  0  0  0  0  0  0
   -7.1389    0.5653    1.7030 H   0  0  0  0  0  0  0  0  0  0  0  0
   -6.2481   -3.3372    0.1485 H   0  0  0  0  0  0  0  0  0  0  0  0
   -4.0131   -2.5702   -0.5362 H   0  0  0  0  0  0  0  0  0  0  0  0
   -1.9041   -1.8801    0.4349 H   0  0  0  0  0  0  0  0  0  0  0  0
    0.3096   -1.1154   -0.2227 H   0  0  0  0  0  0  0  0  0  0  0  0
    1.0559    2.7723    0.2519 H   0  0  0  0  0  0  0  0  0  0  0  0
    2.7390    3.3707   -1.2837 H   0  0  0  0  0  0  0  0  0  0  0  0
    3.3445    3.1946    0.2605 H   0  0  0  0  0  0  0  0  0  0  0  0
    4.8242    1.2847    0.8026 H   0  0  0  0  0  0  0  0  0  0  0  0
    4.3595    0.3285   -0.6765 H   0  0  0  0  0  0  0  0  0  0  0  0
    5.9289   -0.4918    1.7492 H   0  0  0  0  0  0  0  0  0  0  0  0
    5.9439   -1.2071    0.0865 H   0  0  0  0  0  0  0  0  0  0  0  0
    4.7360   -2.4335    2.2911 H   0  0  0  0  0  0  0  0  0  0  0  0
    2.1515   -1.7740    1.4030 H   0  0  0  0  0  0  0  0  0  0  0  0
    2.9702   -0.9779    2.8172 H   0  0  0  0  0  0  0  0  0  0  0  0
  1  2  1  0
  2  3  1  0
  3  4  2  0
  4  5  1  0
  5  6  2  0
  6  7  1  0
  7  8  2  0
  8  9  1  0
  9 10  2  0
 10 11  1  0
 10 12  1  0
 12 13  2  0
  6 14  1  0
 14 15  2  0
  2 16  1  0
 16 17  1  0
 16 18  1  0
 18 19  2  0
 18 20  1  0
 20 21  1  0
 21 22  1  0
 22 23  1  0
 23 24  1  0
 23 25  1  0
 15  3  1  0
 25 20  1  0
 13  7  1  0
  1 26  1  0
  1 27  1  0
  1 28  1  0
  2 29  1  6
  4 30  1  0
  5 31  1  0
  8 32  1  0
  9 33  1  0
 12 34  1  0
 13 35  1  0
 14 36  1  0
 15 37  1  0
 16 38  1  1
 17 39  1  0
 17 40  1  0
 21 41  1  0
 21 42  1  0
 22 43  1  0
 22 44  1  0
 23 45  1  1
 25 46  1  0
 25 47  1  0
M  END
$$$$
