
     RDKit          3D

 37 39  0  0  0  0  0  0  0  0999 V2000
   -1.9327   -0.8522    2.8505 N   0  0  0  0  0  0  0  0  0  0  0  0
   -2.5302   -0.2787    2.0422 C   0  0  0  0  0  0  0  0  0  0  0  0
   -3.2897    0.4512    1.0131 C   0  0  2  0  0  0  0  0  0  0  0  0
   -4.7799    0.1231    1.1039 C   0  0  0  0  0  0  0  0  0  0  0  0
   -5.0312   -0.9389    0.0380 C   0  0  0  0  0  0  0  0  0  0  0  0
   -3.9141   -0.7666   -0.9828 C   0  0  0  0  0  0  0  0  0  0  0  0
   -2.8809    0.0085   -0.3136 N   0  0  0  0  0  0  0  0  0  0  0  0
   -1.6556    0.3833   -0.9750 C   0  0  0  0  0  0  0  0  0  0  0  0
   -1.4400   -0.0197   -2.1508 O   0  0  0  0  0  0  0  0  0  0  0  0
   -0.6504    1.3026   -0.3319 C   0  0  0  0  0  0  0  0  0  0  0  0
    0.7114    0.8861   -0.6600 N   0  0  0  0  0  0  0  0  0  0  0  0
    1.3092   -0.2893   -0.0897 C   0  0  0  0  0  0  0  0  0  0  0  0
    0.6126   -1.0573    0.6297 O   0  0  0  0  0  0  0  0  0  0  0  0
    2.7314   -0.6218   -0.3480 C   0  0  0  0  0  0  0  0  0  0  0  0
    3.1215   -1.9158   -0.3796 C   0  0  0  0  0  0  0  0  0  0  0  0
    4.5306   -2.2899   -0.6649 C   0  0  0  0  0  0  0  0  0  0  0  0
    5.4685   -1.3890   -0.6938 N   0  0  0  0  0  0  0  0  0  0  0  0
    5.1188   -0.0163   -0.5245 C   0  0  0  0  0  0  0  0  0  0  0  0
    5.8202    0.7805    0.2090 N   0  0  0  0  0  0  0  0  0  0  0  0
    4.9673    1.8643    0.5501 C   0  0  0  0  0  0  0  0  0  0  0  0
    3.7383    1.6838    0.0914 C   0  0  0  0  0  0  0  0  0  0  0  0
    3.7206    0.4547   -0.7578 C   0  0  0  0  0  0  0  0  0  0  0  0
   -3.1341    1.5457    1.1298 H   0  0  0  0  0  0  0  0  0  0  0  0
   -5.3690    1.0328    0.8525 H   0  0  0  0  0  0  0  0  0  0  0  0
   -5.0934   -0.2300    2.1119 H   0  0  0  0  0  0  0  0  0  0  0  0
   -4.9626   -1.9487    0.4995 H   0  0  0  0  0  0  0  0  0  0  0  0
   -6.0325   -0.8163   -0.4291 H   0  0  0  0  0  0  0  0  0  0  0  0
   -4.2846   -0.2079   -1.8697 H   0  0  0  0  0  0  0  0  0  0  0  0
   -3.5143   -1.7549   -1.2977 H   0  0  0  0  0  0  0  0  0  0  0  0
   -0.7591    1.3371    0.7703 H   0  0  0  0  0  0  0  0  0  0  0  0
   -0.8236    2.3297   -0.7177 H   0  0  0  0  0  0  0  0  0  0  0  0
    1.2463    1.4595   -1.3497 H   0  0  0  0  0  0  0  0  0  0  0  0
    2.4105   -2.7119   -0.1952 H   0  0  0  0  0  0  0  0  0  0  0  0
    4.7912   -3.3334   -0.7790 H   0  0  0  0  0  0  0  0  0  0  0  0
    5.2751    2.6999    1.1644 H   0  0  0  0  0  0  0  0  0  0  0  0
    2.9200    2.3751    0.2418 H   0  0  0  0  0  0  0  0  0  0  0  0
    3.5844    0.7209   -1.8278 H   0  0  0  0  0  0  0  0  0  0  0  0
  1  2  3  0
  2  3  1  0
  3  4  1  0
  4  5  1  0
  5  6  1  0
  6  7  1  0
  7  8  1  0
  8  9  2  0
  8 10  1  0
 10 11  1  0
 11 12  1  0
 12 13  2  0
 12 14  1  0
 14 15  2  0
 15 16  1  0
 16 17  2  0
 17 18  1  0
 18 19  2  0
 19 20  1  0
 20 21  2  0
 21 22  1  0
  7  3  1  0
 22 14  1  0
 22 18  1  0
  3 23  1  6
  4 24  1  0
  4 25  1  0
  5 26  1  0
  5 27  1  0
  6 28  1  0
  6 29  1  0
 10 30  1  0
 10 31  1  0
 11 32  1  0
 15 33  1  0
 16 34  1  0
 20 35  1  0
 21 36  1  0
 22 37  1  0
M  END
$$$$
