
     RDKit          3D

 48 51  0  0  0  0  0  0  0  0999 V2000
   -3.4805    4.0725    0.3931 C   0  0  0  0  0  0  0  0  0  0  0  0
   -2.2020    3.3407    0.3998 N   0  0  0  0  0  0  0  0  0  0  0  0
   -2.0950    2.1445   -0.2733 C   0  0  0  0  0  0  0  0  0  0  0  0
   -3.0735    1.6771   -0.9157 O   0  0  0  0  0  0  0  0  0  0  0  0
   -0.8756    1.4681   -0.2338 C   0  0  0  0  0  0  0  0  0  0  0  0
    0.1580    1.9814    0.4801 C   0  0  0  0  0  0  0  0  0  0  0  0
    1.2337    1.1757    0.4182 N   0  0  0  0  0  0  0  0  0  0  0  0
    0.8013    0.1625   -0.3731 C   0  0  0  0  0  0  0  0  0  0  0  0
    1.6285   -0.9693   -0.6810 N   0  0  0  0  0  0  0  0  0  0  0  0
    2.0740   -1.1928   -2.0617 C   0  0  0  0  0  0  0  0  0  0  0  0
    3.5171   -1.7208   -2.0818 C   0  0  0  0  0  0  0  0  0  0  0  0
    4.3191   -1.0713   -1.0357 N   0  0  0  0  0  0  0  0  0  0  0  0
    3.8428   -1.3978    0.3242 C   0  0  0  0  0  0  0  0  0  0  0  0
    2.3258   -1.6661    0.4012 C   0  0  0  0  0  0  0  0  0  0  0  0
   -0.4858    0.3021   -0.7956 N   0  0  0  0  0  0  0  0  0  0  0  0
   -1.2947   -0.7085   -1.4874 C   0  0  0  0  0  0  0  0  0  0  0  0
   -1.7010   -1.7943   -0.5261 C   0  0  0  0  0  0  0  0  0  0  0  0
   -2.7256   -1.5651    0.4074 C   0  0  0  0  0  0  0  0  0  0  0  0
   -3.0745   -2.5568    1.3292 C   0  0  0  0  0  0  0  0  0  0  0  0
   -2.4002   -3.7807    1.3305 C   0  0  0  0  0  0  0  0  0  0  0  0
   -1.3755   -4.0146    0.4100 C   0  0  0  0  0  0  0  0  0  0  0  0
   -1.0247   -3.0263   -0.5145 C   0  0  0  0  0  0  0  0  0  0  0  0
    0.0548    3.1372    1.1903 N   0  0  0  0  0  0  0  0  0  0  0  0
    1.2023    3.6656    1.9409 C   0  0  0  0  0  0  0  0  0  0  0  0
   -1.1363    3.8255    1.1379 C   0  0  0  0  0  0  0  0  0  0  0  0
   -1.2555    4.9108    1.7744 O   0  0  0  0  0  0  0  0  0  0  0  0
   -3.3164    5.1693    0.4578 H   0  0  0  0  0  0  0  0  0  0  0  0
   -4.0432    3.8977   -0.5487 H   0  0  0  0  0  0  0  0  0  0  0  0
   -4.1008    3.7448    1.2537 H   0  0  0  0  0  0  0  0  0  0  0  0
    2.0393   -0.2360   -2.6285 H   0  0  0  0  0  0  0  0  0  0  0  0
    1.4100   -1.9252   -2.5642 H   0  0  0  0  0  0  0  0  0  0  0  0
    3.5226   -2.8229   -1.9283 H   0  0  0  0  0  0  0  0  0  0  0  0
    3.9729   -1.5207   -3.0753 H   0  0  0  0  0  0  0  0  0  0  0  0
    4.2645   -0.0339   -1.1727 H   0  0  0  0  0  0  0  0  0  0  0  0
    4.0959   -0.5587    1.0097 H   0  0  0  0  0  0  0  0  0  0  0  0
    4.3895   -2.2921    0.6927 H   0  0  0  0  0  0  0  0  0  0  0  0
    1.9301   -1.3642    1.3962 H   0  0  0  0  0  0  0  0  0  0  0  0
    2.1424   -2.7574    0.2936 H   0  0  0  0  0  0  0  0  0  0  0  0
   -0.7210   -1.1318   -2.3352 H   0  0  0  0  0  0  0  0  0  0  0  0
   -2.1932   -0.2600   -1.9517 H   0  0  0  0  0  0  0  0  0  0  0  0
   -3.2517   -0.6202    0.4251 H   0  0  0  0  0  0  0  0  0  0  0  0
   -3.8655   -2.3749    2.0452 H   0  0  0  0  0  0  0  0  0  0  0  0
   -2.6701   -4.5465    2.0461 H   0  0  0  0  0  0  0  0  0  0  0  0
   -0.8510   -4.9614    0.4141 H   0  0  0  0  0  0  0  0  0  0  0  0
   -0.2254   -3.2228   -1.2169 H   0  0  0  0  0  0  0  0  0  0  0  0
    1.9319    2.8651    2.1874 H   0  0  0  0  0  0  0  0  0  0  0  0
    1.7133    4.4455    1.3380 H   0  0  0  0  0  0  0  0  0  0  0  0
    0.8688    4.1074    2.9042 H   0  0  0  0  0  0  0  0  0  0  0  0
  1  2  1  0
  2  3  1  0
  3  4  2  0
  3  5  1  0
  5  6  2  0
  6  7  1  0
  7  8  2  0
  8  9  1  0
  9 10  1  0
 10 11  1  0
 11 12  1  0
 12 13  1  0
 13 14  1  0
  8 15  1  0
 15 16  1  0
 16 17  1  0
 17 18  2  0
 18 19  1  0
 19 20  2  0
 20 21  1  0
 21 22  2  0
  6 23  1  0
 23 24  1  0
 23 25  1  0
 25 26  2  0
 25  2  1  0
 15  5  1  0
 22 17  1  0
 14  9  1  0
  1 27  1  0
  1 28  1  0
  1 29  1  0
 10 30  1  0
 10 31  1  0
 11 32  1  0
 11 33  1  0
 12 34  1  0
 13 35  1  0
 13 36  1  0
 14 37  1  0
 14 38  1  0
 16 39  1  0
 16 40  1  0
 18 41  1  0
 19 42  1  0
 20 43  1  0
 21 44  1  0
 22 45  1  0
 24 46  1  0
 24 47  1  0
 24 48  1  0
M  END
$$$$
