
     RDKit          3D

 35 36  0  0  0  0  0  0  0  0999 V2000
   -2.6447   -2.8069    1.2022 N   0  0  0  0  0  0  0  0  0  0  0  0
   -2.0695   -1.8080    1.0997 C   0  0  0  0  0  0  0  0  0  0  0  0
   -1.3372   -0.5381    0.9678 C   0  0  2  0  0  0  0  0  0  0  0  0
   -1.9518    0.5468    1.8511 C   0  0  0  0  0  0  0  0  0  0  0  0
   -2.8257    1.3860    0.9249 C   0  0  0  0  0  0  0  0  0  0  0  0
   -2.2741    1.1621   -0.4767 C   0  0  0  0  0  0  0  0  0  0  0  0
   -1.4550   -0.0372   -0.3959 N   0  0  0  0  0  0  0  0  0  0  0  0
   -0.7908   -0.5858   -1.5537 C   0  0  0  0  0  0  0  0  0  0  0  0
   -1.0865   -0.1431   -2.6977 O   0  0  0  0  0  0  0  0  0  0  0  0
    0.3169   -1.6118   -1.4362 C   0  0  1  0  0  0  0  0  0  0  0  0
    0.1567   -2.6294   -2.4787 N   0  0  0  0  0  0  0  0  0  0  0  0
    1.7027   -0.9361   -1.5411 C   0  0  0  0  0  0  0  0  0  0  0  0
    1.9689   -0.0273   -0.3675 C   0  0  0  0  0  0  0  0  0  0  0  0
    2.5089   -0.5468    0.8207 C   0  0  0  0  0  0  0  0  0  0  0  0
    2.6806    0.2782    1.9364 C   0  0  0  0  0  0  0  0  0  0  0  0
    2.3100    1.6256    1.8763 C   0  0  0  0  0  0  0  0  0  0  0  0
    2.5095    2.6546    3.2824 Cl  0  0  0  0  0  0  0  0  0  0  0  0
    1.7729    2.1497    0.6963 C   0  0  0  0  0  0  0  0  0  0  0  0
    1.6038    1.3286   -0.4220 C   0  0  0  0  0  0  0  0  0  0  0  0
   -0.2761   -0.6860    1.2521 H   0  0  0  0  0  0  0  0  0  0  0  0
   -2.5378    0.1398    2.7053 H   0  0  0  0  0  0  0  0  0  0  0  0
   -1.1384    1.1884    2.2579 H   0  0  0  0  0  0  0  0  0  0  0  0
   -2.7981    2.4613    1.2057 H   0  0  0  0  0  0  0  0  0  0  0  0
   -3.8750    1.0205    0.9760 H   0  0  0  0  0  0  0  0  0  0  0  0
   -3.1024    1.0189   -1.2042 H   0  0  0  0  0  0  0  0  0  0  0  0
   -1.6426    2.0232   -0.7863 H   0  0  0  0  0  0  0  0  0  0  0  0
    0.2514   -2.1325   -0.4584 H   0  0  0  0  0  0  0  0  0  0  0  0
    0.8379   -3.4028   -2.2989 H   0  0  0  0  0  0  0  0  0  0  0  0
    0.3967   -2.2193   -3.4113 H   0  0  0  0  0  0  0  0  0  0  0  0
    2.4921   -1.7186   -1.5798 H   0  0  0  0  0  0  0  0  0  0  0  0
    1.7768   -0.3617   -2.4911 H   0  0  0  0  0  0  0  0  0  0  0  0
    2.7790   -1.5934    0.8879 H   0  0  0  0  0  0  0  0  0  0  0  0
    3.0917   -0.1331    2.8494 H   0  0  0  0  0  0  0  0  0  0  0  0
    1.4788    3.1903    0.6469 H   0  0  0  0  0  0  0  0  0  0  0  0
    1.1705    1.7439   -1.3234 H   0  0  0  0  0  0  0  0  0  0  0  0
  1  2  3  0
  2  3  1  0
  3  4  1  0
  4  5  1  0
  5  6  1  0
  6  7  1  0
  7  8  1  0
  8  9  2  0
  8 10  1  0
 10 11  1  0
 10 12  1  0
 12 13  1  0
 13 14  2  0
 14 15  1  0
 15 16  2  0
 16 17  1  0
 16 18  1  0
 18 19  2  0
  7  3  1  0
 19 13  1  0
  3 20  1  1
  4 21  1  0
  4 22  1  0
  5 23  1  0
  5 24  1  0
  6 25  1  0
  6 26  1  0
 10 27  1  1
 11 28  1  0
 11 29  1  0
 12 30  1  0
 12 31  1  0
 14 32  1  0
 15 33  1  0
 18 34  1  0
 19 35  1  0
M  END
$$$$
