
     RDKit          3D

 44 45  0  0  0  0  0  0  0  0999 V2000
   -3.1212   -2.4306   -0.5933 N   0  0  0  0  0  0  0  0  0  0  0  0
   -3.1513   -1.0428   -0.9257 C   0  0  0  0  0  0  0  0  0  0  0  0
   -2.4993   -0.6273   -1.9215 O   0  0  0  0  0  0  0  0  0  0  0  0
   -3.9908   -0.0839   -0.1209 C   0  0  2  0  0  0  0  0  0  0  0  0
   -5.2454    0.3280   -0.8993 C   0  0  0  0  0  0  0  0  0  0  0  0
   -5.3583    1.8411   -0.7443 C   0  0  0  0  0  0  0  0  0  0  0  0
   -3.9732    2.3265   -0.3430 C   0  0  0  0  0  0  0  0  0  0  0  0
   -3.2660    1.1544    0.1462 N   0  0  0  0  0  0  0  0  0  0  0  0
   -2.0612    1.2701    0.9325 C   0  0  0  0  0  0  0  0  0  0  0  0
   -1.4679    2.3820    0.9879 O   0  0  0  0  0  0  0  0  0  0  0  0
   -1.5218    0.1255    1.7568 C   0  0  0  0  0  0  0  0  0  0  0  0
   -0.0251   -0.1163    1.5114 C   0  0  0  0  0  0  0  0  0  0  0  0
    0.2556   -0.6294    0.0939 C   0  0  0  0  0  0  0  0  0  0  0  0
    1.6834   -0.8862   -0.0819 N   0  0  0  0  0  0  0  0  0  0  0  0
    2.6314    0.1698   -0.3134 C   0  0  0  0  0  0  0  0  0  0  0  0
    2.2489    1.3713   -0.2673 O   0  0  0  0  0  0  0  0  0  0  0  0
    4.0578   -0.1252   -0.5914 C   0  0  0  0  0  0  0  0  0  0  0  0
    5.0434    0.8338   -0.2935 C   0  0  0  0  0  0  0  0  0  0  0  0
    6.3916    0.5714   -0.5543 C   0  0  0  0  0  0  0  0  0  0  0  0
    6.7735   -0.6490   -1.1248 C   0  0  0  0  0  0  0  0  0  0  0  0
    8.1138   -0.9216   -1.3891 O   0  0  0  0  0  0  0  0  0  0  0  0
    5.8004   -1.6025   -1.4357 C   0  0  0  0  0  0  0  0  0  0  0  0
    4.4509   -1.3443   -1.1753 C   0  0  0  0  0  0  0  0  0  0  0  0
   -2.5430   -3.0936   -1.1556 H   0  0  0  0  0  0  0  0  0  0  0  0
   -3.6693   -2.7987    0.2154 H   0  0  0  0  0  0  0  0  0  0  0  0
   -4.2953   -0.5432    0.8452 H   0  0  0  0  0  0  0  0  0  0  0  0
   -5.1578    0.0847   -1.9824 H   0  0  0  0  0  0  0  0  0  0  0  0
   -6.1490   -0.1805   -0.4975 H   0  0  0  0  0  0  0  0  0  0  0  0
   -6.0843    2.0766    0.0650 H   0  0  0  0  0  0  0  0  0  0  0  0
   -5.6969    2.3223   -1.6876 H   0  0  0  0  0  0  0  0  0  0  0  0
   -3.4337    2.7457   -1.2198 H   0  0  0  0  0  0  0  0  0  0  0  0
   -4.0539    3.0975    0.4544 H   0  0  0  0  0  0  0  0  0  0  0  0
   -2.0754   -0.8167    1.5783 H   0  0  0  0  0  0  0  0  0  0  0  0
   -1.6659    0.3807    2.8283 H   0  0  0  0  0  0  0  0  0  0  0  0
    0.3322   -0.8756    2.2409 H   0  0  0  0  0  0  0  0  0  0  0  0
    0.5428    0.8198    1.7013 H   0  0  0  0  0  0  0  0  0  0  0  0
   -0.3026   -1.5772   -0.0662 H   0  0  0  0  0  0  0  0  0  0  0  0
   -0.0883    0.1040   -0.6670 H   0  0  0  0  0  0  0  0  0  0  0  0
    2.0079   -1.8763   -0.0177 H   0  0  0  0  0  0  0  0  0  0  0  0
    4.7725    1.7830    0.1524 H   0  0  0  0  0  0  0  0  0  0  0  0
    7.1381    1.3173   -0.3126 H   0  0  0  0  0  0  0  0  0  0  0  0
    8.8426   -0.2505   -1.1762 H   0  0  0  0  0  0  0  0  0  0  0  0
    6.0895   -2.5433   -1.8869 H   0  0  0  0  0  0  0  0  0  0  0  0
    3.7207   -2.0906   -1.4573 H   0  0  0  0  0  0  0  0  0  0  0  0
  1  2  1  0
  2  3  2  0
  2  4  1  0
  4  5  1  0
  5  6  1  0
  6  7  1  0
  7  8  1  0
  8  9  1  0
  9 10  2  0
  9 11  1  0
 11 12  1  0
 12 13  1  0
 13 14  1  0
 14 15  1  0
 15 16  2  0
 15 17  1  0
 17 18  2  0
 18 19  1  0
 19 20  2  0
 20 21  1  0
 20 22  1  0
 22 23  2  0
  8  4  1  0
 23 17  1  0
  1 24  1  0
  1 25  1  0
  4 26  1  1
  5 27  1  0
  5 28  1  0
  6 29  1  0
  6 30  1  0
  7 31  1  0
  7 32  1  0
 11 33  1  0
 11 34  1  0
 12 35  1  0
 12 36  1  0
 13 37  1  0
 13 38  1  0
 14 39  1  0
 18 40  1  0
 19 41  1  0
 21 42  1  0
 22 43  1  0
 23 44  1  0
M  END
$$$$
