
     RDKit          3D

 40 42  0  0  0  0  0  0  0  0999 V2000
   -2.6376   -2.8962    1.0966 N   0  0  0  0  0  0  0  0  0  0  0  0
   -3.2343   -1.9061    1.0421 C   0  0  0  0  0  0  0  0  0  0  0  0
   -3.9912   -0.6445    0.9722 C   0  0  0  0  0  0  0  0  0  0  0  0
   -5.0515   -0.6962   -0.1297 C   0  0  0  0  0  0  0  0  0  0  0  0
   -4.9786    0.6547   -0.8352 C   0  0  0  0  0  0  0  0  0  0  0  0
   -3.5924    1.2076   -0.5336 C   0  0  0  0  0  0  0  0  0  0  0  0
   -3.1127    0.4618    0.6187 N   0  0  0  0  0  0  0  0  0  0  0  0
   -1.9897    0.8668    1.4257 C   0  0  0  0  0  0  0  0  0  0  0  0
   -1.8731    0.4225    2.5999 O   0  0  0  0  0  0  0  0  0  0  0  0
   -0.9127    1.7664    0.8877 C   0  0  0  0  0  0  0  0  0  0  0  0
    0.3296    1.0155    0.7280 N   0  0  0  0  0  0  0  0  0  0  0  0
    0.5012    0.0189   -0.2912 C   0  0  0  0  0  0  0  0  0  0  0  0
   -0.4555   -0.2740   -1.0587 O   0  0  0  0  0  0  0  0  0  0  0  0
    1.7748   -0.7217   -0.4087 C   0  0  0  0  0  0  0  0  0  0  0  0
    1.7223   -2.1247   -0.3848 C   0  0  0  0  0  0  0  0  0  0  0  0
    2.8913   -2.8835   -0.4295 C   0  0  0  0  0  0  0  0  0  0  0  0
    4.1337   -2.2570   -0.5053 C   0  0  0  0  0  0  0  0  0  0  0  0
    4.2177   -0.8588   -0.5584 C   0  0  0  0  0  0  0  0  0  0  0  0
    5.4716   -0.2356   -0.6605 C   0  0  0  0  0  0  0  0  0  0  0  0
    5.5616    1.1539   -0.7482 C   0  0  0  0  0  0  0  0  0  0  0  0
    4.4045    1.9322   -0.7459 C   0  0  0  0  0  0  0  0  0  0  0  0
    3.1488    1.3288   -0.6416 C   0  0  0  0  0  0  0  0  0  0  0  0
    3.0332   -0.0732   -0.5232 C   0  0  0  0  0  0  0  0  0  0  0  0
   -4.4689   -0.4410    1.9553 H   0  0  0  0  0  0  0  0  0  0  0  0
   -6.0639   -0.8705    0.2957 H   0  0  0  0  0  0  0  0  0  0  0  0
   -4.8327   -1.4978   -0.8717 H   0  0  0  0  0  0  0  0  0  0  0  0
   -5.1441    0.5513   -1.9297 H   0  0  0  0  0  0  0  0  0  0  0  0
   -5.7510    1.3346   -0.4124 H   0  0  0  0  0  0  0  0  0  0  0  0
   -2.9125    1.0418   -1.3967 H   0  0  0  0  0  0  0  0  0  0  0  0
   -3.6548    2.2927   -0.2989 H   0  0  0  0  0  0  0  0  0  0  0  0
   -1.1931    2.2279   -0.0809 H   0  0  0  0  0  0  0  0  0  0  0  0
   -0.7504    2.5939    1.6114 H   0  0  0  0  0  0  0  0  0  0  0  0
    1.1078    1.1944    1.4024 H   0  0  0  0  0  0  0  0  0  0  0  0
    0.7698   -2.6355   -0.3057 H   0  0  0  0  0  0  0  0  0  0  0  0
    2.8339   -3.9639   -0.3970 H   0  0  0  0  0  0  0  0  0  0  0  0
    5.0294   -2.8663   -0.5342 H   0  0  0  0  0  0  0  0  0  0  0  0
    6.3814   -0.8240   -0.6803 H   0  0  0  0  0  0  0  0  0  0  0  0
    6.5311    1.6283   -0.8305 H   0  0  0  0  0  0  0  0  0  0  0  0
    4.4799    3.0086   -0.8321 H   0  0  0  0  0  0  0  0  0  0  0  0
    2.2773    1.9677   -0.6743 H   0  0  0  0  0  0  0  0  0  0  0  0
  1  2  3  0
  2  3  1  0
  3  4  1  0
  4  5  1  0
  5  6  1  0
  6  7  1  0
  7  8  1  0
  8  9  2  0
  8 10  1  0
 10 11  1  0
 11 12  1  0
 12 13  2  0
 12 14  1  0
 14 15  2  0
 15 16  1  0
 16 17  2  0
 17 18  1  0
 18 19  2  0
 19 20  1  0
 20 21  2  0
 21 22  1  0
 22 23  2  0
  7  3  1  0
 23 14  1  0
 23 18  1  0
  3 24  1  0
  4 25  1  0
  4 26  1  0
  5 27  1  0
  5 28  1  0
  6 29  1  0
  6 30  1  0
 10 31  1  0
 10 32  1  0
 11 33  1  0
 15 34  1  0
 16 35  1  0
 17 36  1  0
 19 37  1  0
 20 38  1  0
 21 39  1  0
 22 40  1  0
M  END
$$$$
