
     RDKit          3D

 50 52  0  0  0  0  0  0  0  0999 V2000
    9.0761   -0.4889   -2.3679 N   0  0  0  0  0  0  0  0  0  0  0  0
    7.9934   -0.2124   -2.0668 C   0  0  0  0  0  0  0  0  0  0  0  0
    6.6469    0.1315   -1.6923 C   0  0  0  0  0  0  0  0  0  0  0  0
    6.0857   -0.3797   -0.5193 C   0  0  0  0  0  0  0  0  0  0  0  0
    4.7785   -0.0389   -0.1653 C   0  0  0  0  0  0  0  0  0  0  0  0
    4.0344    0.8171   -0.9997 C   0  0  0  0  0  0  0  0  0  0  0  0
    2.6848    1.2112   -0.6907 N   0  0  0  0  0  0  0  0  0  0  0  0
    1.8916    0.6799    0.4255 C   0  0  1  0  0  0  0  0  0  0  0  0
    0.6741    1.5864    0.6909 C   0  0  0  0  0  0  0  0  0  0  0  0
   -0.1920    1.0293    1.8277 C   0  0  0  0  0  0  0  0  0  0  0  0
   -0.6615   -0.4090    1.5070 C   0  0  2  0  0  0  0  0  0  0  0  0
   -1.4526   -0.9894    2.6106 N   0  0  0  0  0  0  0  0  0  0  0  0
   -2.8598   -0.5648    2.5987 C   0  0  0  0  0  0  0  0  0  0  0  0
   -3.6118   -1.2661    1.5002 C   0  0  0  0  0  0  0  0  0  0  0  0
   -3.8281   -2.5029    1.6158 O   0  0  0  0  0  0  0  0  0  0  0  0
   -4.0393   -0.5767    0.3080 N   0  0  0  0  0  0  0  0  0  0  0  0
   -4.0467    0.8705    0.1526 C   0  0  0  0  0  0  0  0  0  0  0  0
   -4.5462    1.1332   -1.2622 C   0  0  0  0  0  0  0  0  0  0  0  0
   -5.2074   -0.1645   -1.7170 C   0  0  0  0  0  0  0  0  0  0  0  0
   -4.6053   -1.2643   -0.8432 C   0  0  1  0  0  0  0  0  0  0  0  0
   -3.5439   -1.9918   -1.5585 C   0  0  0  0  0  0  0  0  0  0  0  0
   -2.7079   -2.5629   -2.1190 N   0  0  0  0  0  0  0  0  0  0  0  0
    0.5530   -1.3126    1.2390 C   0  0  0  0  0  0  0  0  0  0  0  0
    1.4224   -0.7523    0.1062 C   0  0  0  0  0  0  0  0  0  0  0  0
    4.6128    1.3018   -2.1338 N   0  0  0  0  0  0  0  0  0  0  0  0
    5.8838    0.9831   -2.4959 C   0  0  0  0  0  0  0  0  0  0  0  0
    6.6581   -1.0395    0.1217 H   0  0  0  0  0  0  0  0  0  0  0  0
    4.3696   -0.4428    0.7492 H   0  0  0  0  0  0  0  0  0  0  0  0
    2.2469    1.9231   -1.3196 H   0  0  0  0  0  0  0  0  0  0  0  0
    2.5106    0.6788    1.3493 H   0  0  0  0  0  0  0  0  0  0  0  0
    0.0561    1.6765   -0.2303 H   0  0  0  0  0  0  0  0  0  0  0  0
    1.0253    2.6040    0.9687 H   0  0  0  0  0  0  0  0  0  0  0  0
    0.3934    1.0400    2.7735 H   0  0  0  0  0  0  0  0  0  0  0  0
   -1.0665    1.6990    1.9613 H   0  0  0  0  0  0  0  0  0  0  0  0
   -1.2639   -0.3888    0.5715 H   0  0  0  0  0  0  0  0  0  0  0  0
   -1.0290   -0.7201    3.5299 H   0  0  0  0  0  0  0  0  0  0  0  0
   -3.3279   -0.8539    3.5649 H   0  0  0  0  0  0  0  0  0  0  0  0
   -2.9491    0.5377    2.5337 H   0  0  0  0  0  0  0  0  0  0  0  0
   -4.7369    1.3224    0.8975 H   0  0  0  0  0  0  0  0  0  0  0  0
   -3.0244    1.2861    0.2779 H   0  0  0  0  0  0  0  0  0  0  0  0
   -3.6832    1.3596   -1.9266 H   0  0  0  0  0  0  0  0  0  0  0  0
   -5.2613    1.9839   -1.2893 H   0  0  0  0  0  0  0  0  0  0  0  0
   -6.3005   -0.1008   -1.5204 H   0  0  0  0  0  0  0  0  0  0  0  0
   -5.0570   -0.3365   -2.8064 H   0  0  0  0  0  0  0  0  0  0  0  0
   -5.3968   -1.9766   -0.5233 H   0  0  0  0  0  0  0  0  0  0  0  0
    1.1657   -1.4097    2.1627 H   0  0  0  0  0  0  0  0  0  0  0  0
    0.2004   -2.3280    0.9544 H   0  0  0  0  0  0  0  0  0  0  0  0
    0.8417   -0.7550   -0.8429 H   0  0  0  0  0  0  0  0  0  0  0  0
    2.2977   -1.4204   -0.0342 H   0  0  0  0  0  0  0  0  0  0  0  0
    6.2960    1.3946   -3.4088 H   0  0  0  0  0  0  0  0  0  0  0  0
  1  2  3  0
  2  3  1  0
  3  4  2  0
  4  5  1  0
  5  6  2  0
  6  7  1  0
  7  8  1  0
  8  9  1  0
  9 10  1  0
 10 11  1  0
 11 12  1  0
 12 13  1  0
 13 14  1  0
 14 15  2  0
 14 16  1  0
 16 17  1  0
 17 18  1  0
 18 19  1  0
 19 20  1  0
 20 21  1  0
 21 22  3  0
 11 23  1  0
 23 24  1  0
  6 25  1  0
 25 26  2  0
 26  3  1  0
 24  8  1  0
 20 16  1  0
  4 27  1  0
  5 28  1  0
  7 29  1  0
  8 30  1  1
  9 31  1  0
  9 32  1  0
 10 33  1  0
 10 34  1  0
 11 35  1  6
 12 36  1  0
 13 37  1  0
 13 38  1  0
 17 39  1  0
 17 40  1  0
 18 41  1  0
 18 42  1  0
 19 43  1  0
 19 44  1  0
 20 45  1  1
 23 46  1  0
 23 47  1  0
 24 48  1  0
 24 49  1  0
 26 50  1  0
M  END
$$$$
