
     RDKit          3D

 39 40  0  0  0  0  0  0  0  0999 V2000
    0.2598   -3.1951   -0.0390 C   0  0  0  0  0  0  0  0  0  0  0  0
    0.3226   -1.7112    0.3322 C   0  0  1  0  0  0  0  0  0  0  0  0
    1.6841   -1.1927    0.1610 N   0  0  0  0  0  0  0  0  0  0  0  0
    2.0630    0.1072    0.6451 C   0  0  0  0  0  0  0  0  0  0  0  0
    1.2723    0.7474    1.3918 O   0  0  0  0  0  0  0  0  0  0  0  0
    3.3732    0.7051    0.2934 C   0  0  0  0  0  0  0  0  0  0  0  0
    4.0588    0.3240   -0.8733 C   0  0  0  0  0  0  0  0  0  0  0  0
    5.2876    0.9153   -1.1778 C   0  0  0  0  0  0  0  0  0  0  0  0
    5.8145    1.8591   -0.3546 N   0  0  0  0  0  0  0  0  0  0  0  0
    5.1721    2.2563    0.7748 C   0  0  0  0  0  0  0  0  0  0  0  0
    3.9408    1.6923    1.1169 C   0  0  0  0  0  0  0  0  0  0  0  0
   -0.6388   -0.9290   -0.5315 C   0  0  0  0  0  0  0  0  0  0  0  0
   -0.3044   -0.6578   -1.7177 O   0  0  0  0  0  0  0  0  0  0  0  0
   -1.9358   -0.5212   -0.0499 N   0  0  0  0  0  0  0  0  0  0  0  0
   -2.4839   -0.8956    1.2458 C   0  0  0  0  0  0  0  0  0  0  0  0
   -3.8821   -0.2920    1.2979 C   0  0  0  0  0  0  0  0  0  0  0  0
   -4.2315    0.0717   -0.1421 C   0  0  0  0  0  0  0  0  0  0  0  0
   -2.8935    0.2070   -0.8712 C   0  0  1  0  0  0  0  0  0  0  0  0
   -2.4418    1.7406   -1.0136 B   0  0  0  0  0  0  0  0  0  0  0  0
   -2.2554    2.3259   -2.3386 O   0  0  0  0  0  0  0  0  0  0  0  0
   -2.1837    2.5450    0.1789 O   0  0  0  0  0  0  0  0  0  0  0  0
   -0.7688   -3.5856    0.1159 H   0  0  0  0  0  0  0  0  0  0  0  0
    0.5466   -3.3461   -1.1021 H   0  0  0  0  0  0  0  0  0  0  0  0
    0.9546   -3.7750    0.6050 H   0  0  0  0  0  0  0  0  0  0  0  0
    0.0520   -1.6245    1.4047 H   0  0  0  0  0  0  0  0  0  0  0  0
    2.4093   -1.8032   -0.2786 H   0  0  0  0  0  0  0  0  0  0  0  0
    3.6450   -0.4028   -1.5593 H   0  0  0  0  0  0  0  0  0  0  0  0
    5.8198    0.6276   -2.0747 H   0  0  0  0  0  0  0  0  0  0  0  0
    5.6173    3.0115    1.4087 H   0  0  0  0  0  0  0  0  0  0  0  0
    3.4428    2.0174    2.0220 H   0  0  0  0  0  0  0  0  0  0  0  0
   -1.8593   -0.4817    2.0664 H   0  0  0  0  0  0  0  0  0  0  0  0
   -2.5382   -2.0030    1.3246 H   0  0  0  0  0  0  0  0  0  0  0  0
   -3.8684    0.6310    1.9185 H   0  0  0  0  0  0  0  0  0  0  0  0
   -4.6180   -1.0076    1.7246 H   0  0  0  0  0  0  0  0  0  0  0  0
   -4.8071   -0.7665   -0.5938 H   0  0  0  0  0  0  0  0  0  0  0  0
   -4.8612    0.9883   -0.1893 H   0  0  0  0  0  0  0  0  0  0  0  0
   -2.9697   -0.2552   -1.8799 H   0  0  0  0  0  0  0  0  0  0  0  0
   -3.1400    2.7063   -2.5703 H   0  0  0  0  0  0  0  0  0  0  0  0
   -3.0543    2.9668    0.3908 H   0  0  0  0  0  0  0  0  0  0  0  0
  1  2  1  0
  2  3  1  0
  3  4  1  0
  4  5  2  0
  4  6  1  0
  6  7  2  0
  7  8  1  0
  8  9  2  0
  9 10  1  0
 10 11  2  0
  2 12  1  0
 12 13  2  0
 12 14  1  0
 14 15  1  0
 15 16  1  0
 16 17  1  0
 17 18  1  0
 18 19  1  0
 19 20  1  0
 19 21  1  0
 11  6  1  0
 18 14  1  0
  1 22  1  0
  1 23  1  0
  1 24  1  0
  2 25  1  1
  3 26  1  0
  7 27  1  0
  8 28  1  0
 10 29  1  0
 11 30  1  0
 15 31  1  0
 15 32  1  0
 16 33  1  0
 16 34  1  0
 17 35  1  0
 17 36  1  0
 18 37  1  6
 20 38  1  0
 21 39  1  0
M  END
$$$$
