
     RDKit          3D

 46 48  0  0  0  0  0  0  0  0999 V2000
    3.2957    0.3246    2.1157 N   0  0  0  0  0  0  0  0  0  0  0  0
    1.8418    0.3036    2.2502 C   0  0  0  0  0  0  0  0  0  0  0  0
    1.1752   -0.4343    1.0615 C   0  0  1  0  0  0  0  0  0  0  0  0
   -0.2608   -0.8284    1.4647 C   0  0  0  0  0  0  0  0  0  0  0  0
   -0.9993   -1.4563    0.3600 N   0  0  0  0  0  0  0  0  0  0  0  0
   -2.1046   -2.3733    0.6801 C   0  0  0  0  0  0  0  0  0  0  0  0
   -3.3241   -1.6212    1.2327 C   0  0  0  0  0  0  0  0  0  0  0  0
   -3.9194   -0.6895    0.2097 C   0  0  0  0  0  0  0  0  0  0  0  0
   -4.7705   -1.1865   -0.7884 C   0  0  0  0  0  0  0  0  0  0  0  0
   -5.2814   -0.3154   -1.7536 C   0  0  0  0  0  0  0  0  0  0  0  0
   -4.9499    1.0028   -1.7269 N   0  0  0  0  0  0  0  0  0  0  0  0
   -4.1233    1.5105   -0.7744 C   0  0  0  0  0  0  0  0  0  0  0  0
   -3.5916    0.6748    0.2103 C   0  0  0  0  0  0  0  0  0  0  0  0
   -0.7923   -1.0073   -0.9943 C   0  0  0  0  0  0  0  0  0  0  0  0
   -1.6512   -1.2478   -1.8857 O   0  0  0  0  0  0  0  0  0  0  0  0
    0.4926   -0.3479   -1.3915 C   0  0  0  0  0  0  0  0  0  0  0  0
    1.1236    0.4360   -0.2266 C   0  0  2  0  0  0  0  0  0  0  0  0
    2.4894    0.9646   -0.6456 C   0  0  0  0  0  0  0  0  0  0  0  0
    3.5369    0.0753   -0.9625 C   0  0  0  0  0  0  0  0  0  0  0  0
    4.7913    0.5601   -1.3429 C   0  0  0  0  0  0  0  0  0  0  0  0
    5.7896   -0.3085   -1.6392 F   0  0  0  0  0  0  0  0  0  0  0  0
    5.0173    1.9364   -1.4148 C   0  0  0  0  0  0  0  0  0  0  0  0
    6.2343    2.4078   -1.7830 F   0  0  0  0  0  0  0  0  0  0  0  0
    3.9891    2.8293   -1.1059 C   0  0  0  0  0  0  0  0  0  0  0  0
    2.7310    2.3525   -0.7238 C   0  0  0  0  0  0  0  0  0  0  0  0
    1.7555    3.2487   -0.4283 F   0  0  0  0  0  0  0  0  0  0  0  0
    3.6816    0.8964    2.9014 H   0  0  0  0  0  0  0  0  0  0  0  0
    3.6519   -0.6494    2.2516 H   0  0  0  0  0  0  0  0  0  0  0  0
    1.5824   -0.1990    3.2098 H   0  0  0  0  0  0  0  0  0  0  0  0
    1.4599    1.3471    2.3068 H   0  0  0  0  0  0  0  0  0  0  0  0
    1.7376   -1.3728    0.8575 H   0  0  0  0  0  0  0  0  0  0  0  0
   -0.8147    0.0769    1.7954 H   0  0  0  0  0  0  0  0  0  0  0  0
   -0.2138   -1.5286    2.3280 H   0  0  0  0  0  0  0  0  0  0  0  0
   -1.7630   -3.1078    1.4411 H   0  0  0  0  0  0  0  0  0  0  0  0
   -2.3979   -2.9677   -0.2127 H   0  0  0  0  0  0  0  0  0  0  0  0
   -3.0393   -1.0618    2.1500 H   0  0  0  0  0  0  0  0  0  0  0  0
   -4.0920   -2.3639    1.5404 H   0  0  0  0  0  0  0  0  0  0  0  0
   -5.0295   -2.2375   -0.8216 H   0  0  0  0  0  0  0  0  0  0  0  0
   -5.9389   -0.6888   -2.5272 H   0  0  0  0  0  0  0  0  0  0  0  0
   -3.8762    2.5636   -0.7829 H   0  0  0  0  0  0  0  0  0  0  0  0
   -2.9286    1.0866    0.9602 H   0  0  0  0  0  0  0  0  0  0  0  0
    0.3052    0.3464   -2.2401 H   0  0  0  0  0  0  0  0  0  0  0  0
    1.1790   -1.1454   -1.7464 H   0  0  0  0  0  0  0  0  0  0  0  0
    0.4464    1.2944   -0.0166 H   0  0  0  0  0  0  0  0  0  0  0  0
    3.3875   -0.9950   -0.9038 H   0  0  0  0  0  0  0  0  0  0  0  0
    4.1672    3.8956   -1.1620 H   0  0  0  0  0  0  0  0  0  0  0  0
  1  2  1  0
  2  3  1  0
  3  4  1  0
  4  5  1  0
  5  6  1  0
  6  7  1  0
  7  8  1  0
  8  9  2  0
  9 10  1  0
 10 11  2  0
 11 12  1  0
 12 13  2  0
  5 14  1  0
 14 15  2  0
 14 16  1  0
 16 17  1  0
 17 18  1  0
 18 19  2  0
 19 20  1  0
 20 21  1  0
 20 22  2  0
 22 23  1  0
 22 24  1  0
 24 25  2  0
 25 26  1  0
 17  3  1  0
 25 18  1  0
 13  8  1  0
  1 27  1  0
  1 28  1  0
  2 29  1  0
  2 30  1  0
  3 31  1  6
  4 32  1  0
  4 33  1  0
  6 34  1  0
  6 35  1  0
  7 36  1  0
  7 37  1  0
  9 38  1  0
 10 39  1  0
 12 40  1  0
 13 41  1  0
 16 42  1  0
 16 43  1  0
 17 44  1  1
 19 45  1  0
 24 46  1  0
M  END
$$$$
