
     RDKit          3D

 58 59  0  0  0  0  0  0  0  0999 V2000
    9.5025    1.5770    1.7768 C   0  0  0  0  0  0  0  0  0  0  0  0
    8.3072    1.4815    1.0115 O   0  0  0  0  0  0  0  0  0  0  0  0
    7.7767    0.2577    0.5887 C   0  0  0  0  0  0  0  0  0  0  0  0
    8.3631   -0.8203    0.8847 O   0  0  0  0  0  0  0  0  0  0  0  0
    6.5281    0.2303   -0.2049 C   0  0  0  0  0  0  0  0  0  0  0  0
    5.8714    1.4282   -0.5362 C   0  0  0  0  0  0  0  0  0  0  0  0
    4.6908    1.4065   -1.2844 C   0  0  0  0  0  0  0  0  0  0  0  0
    4.1484    0.1874   -1.7169 C   0  0  0  0  0  0  0  0  0  0  0  0
    2.8639    0.1526   -2.4996 C   0  0  0  0  0  0  0  0  0  0  0  0
    1.8281   -0.4477   -1.7253 O   0  0  0  0  0  0  0  0  0  0  0  0
    1.2411    0.1728   -0.6174 C   0  0  0  0  0  0  0  0  0  0  0  0
    1.5791    1.3408   -0.2790 O   0  0  0  0  0  0  0  0  0  0  0  0
    0.2316   -0.5840    0.1972 C   0  0  0  0  0  0  0  0  0  0  0  0
    0.8225   -1.0545    1.5403 C   0  0  0  0  0  0  0  0  0  0  0  0
   -0.0397   -0.3494    2.5363 C   0  0  0  0  0  0  0  0  0  0  0  0
   -0.9576    0.3666    1.9884 N   0  0  0  0  0  0  0  0  0  0  0  0
   -0.8703    0.2805    0.5998 N   0  0  0  0  0  0  0  0  0  0  0  0
   -1.8320    0.8665   -0.2912 C   0  0  0  0  0  0  0  0  0  0  0  0
   -1.7028    0.7182   -1.5365 O   0  0  0  0  0  0  0  0  0  0  0  0
   -3.0125    1.6363    0.2380 C   0  0  0  0  0  0  0  0  0  0  0  0
   -4.2508    0.7509    0.4872 C   0  0  2  0  0  0  0  0  0  0  0  0
   -3.9569   -0.2587    1.5099 N   0  0  0  0  0  0  0  0  0  0  0  0
   -4.7787    0.1119   -0.8198 C   0  0  0  0  0  0  0  0  0  0  0  0
   -6.1245   -0.5410   -0.6185 C   0  0  0  0  0  0  0  0  0  0  0  0
   -7.2869    0.2488   -0.6030 C   0  0  0  0  0  0  0  0  0  0  0  0
   -8.5384   -0.3383   -0.3930 C   0  0  0  0  0  0  0  0  0  0  0  0
   -9.6534    0.4333   -0.3826 F   0  0  0  0  0  0  0  0  0  0  0  0
   -8.6392   -1.7179   -0.1912 C   0  0  0  0  0  0  0  0  0  0  0  0
   -9.8521   -2.2885    0.0139 F   0  0  0  0  0  0  0  0  0  0  0  0
   -7.4883   -2.5106   -0.1972 C   0  0  0  0  0  0  0  0  0  0  0  0
   -6.2335   -1.9290   -0.4069 C   0  0  0  0  0  0  0  0  0  0  0  0
   -5.1298   -2.7187   -0.3992 F   0  0  0  0  0  0  0  0  0  0  0  0
    4.7979   -1.0100   -1.3854 C   0  0  0  0  0  0  0  0  0  0  0  0
    5.9785   -0.9901   -0.6374 C   0  0  0  0  0  0  0  0  0  0  0  0
    0.6878    0.0000    0.0000 Cl  0  0  0  0  0  0  0  0  0  0  0  0
   10.3534    1.1451    1.2085 H   0  0  0  0  0  0  0  0  0  0  0  0
    9.7160    2.6450    1.9875 H   0  0  0  0  0  0  0  0  0  0  0  0
    9.3815    1.0373    2.7399 H   0  0  0  0  0  0  0  0  0  0  0  0
    6.2674    2.3837   -0.2159 H   0  0  0  0  0  0  0  0  0  0  0  0
    4.1988    2.3415   -1.5222 H   0  0  0  0  0  0  0  0  0  0  0  0
    2.5529    1.1700   -2.8242 H   0  0  0  0  0  0  0  0  0  0  0  0
    3.0180   -0.4533   -3.4173 H   0  0  0  0  0  0  0  0  0  0  0  0
   -0.1614   -1.4505   -0.3791 H   0  0  0  0  0  0  0  0  0  0  0  0
    1.8852   -0.7579    1.6795 H   0  0  0  0  0  0  0  0  0  0  0  0
    0.7142   -2.1537    1.6585 H   0  0  0  0  0  0  0  0  0  0  0  0
    0.0717   -0.4299    3.6091 H   0  0  0  0  0  0  0  0  0  0  0  0
   -3.2752    2.4401   -0.4842 H   0  0  0  0  0  0  0  0  0  0  0  0
   -2.7304    2.1454    1.1845 H   0  0  0  0  0  0  0  0  0  0  0  0
   -5.0417    1.4272    0.8843 H   0  0  0  0  0  0  0  0  0  0  0  0
   -4.8570   -0.6618    1.8573 H   0  0  0  0  0  0  0  0  0  0  0  0
   -3.4065   -1.0412    1.0869 H   0  0  0  0  0  0  0  0  0  0  0  0
   -4.0467   -0.6264   -1.2122 H   0  0  0  0  0  0  0  0  0  0  0  0
   -4.8800    0.8989   -1.5993 H   0  0  0  0  0  0  0  0  0  0  0  0
   -7.2212    1.3197   -0.7521 H   0  0  0  0  0  0  0  0  0  0  0  0
   -7.5681   -3.5782   -0.0364 H   0  0  0  0  0  0  0  0  0  0  0  0
    4.3869   -1.9602   -1.7042 H   0  0  0  0  0  0  0  0  0  0  0  0
    6.4588   -1.9301   -0.3962 H   0  0  0  0  0  0  0  0  0  0  0  0
   -0.6878    0.0000    0.0000 H   0  0  0  0  0  0  0  0  0  0  0  0
  1  2  1  0
  2  3  1  0
  3  4  2  0
  3  5  1  0
  5  6  2  0
  6  7  1  0
  7  8  2  0
  8  9  1  0
  9 10  1  0
 10 11  1  0
 11 12  2  0
 11 13  1  0
 13 14  1  0
 14 15  1  0
 15 16  2  0
 16 17  1  0
 17 18  1  0
 18 19  2  0
 18 20  1  0
 20 21  1  0
 21 22  1  0
 21 23  1  0
 23 24  1  0
 24 25  2  0
 25 26  1  0
 26 27  1  0
 26 28  2  0
 28 29  1  0
 28 30  1  0
 30 31  2  0
 31 32  1  0
  8 33  1  0
 33 34  2  0
 34  5  1  0
 17 13  1  0
 31 24  1  0
  1 36  1  0
  1 37  1  0
  1 38  1  0
  6 39  1  0
  7 40  1  0
  9 41  1  0
  9 42  1  0
 13 43  1  0
 14 44  1  0
 14 45  1  0
 15 46  1  0
 20 47  1  0
 20 48  1  0
 21 49  1  1
 22 50  1  0
 22 51  1  0
 23 52  1  0
 23 53  1  0
 25 54  1  0
 30 55  1  0
 33 56  1  0
 34 57  1  0
 35 58  1  0
M  END
$$$$
