
     RDKit          3D

 34 34  0  0  0  0  0  0  0  0999 V2000
    3.1272    1.3590   -0.6362 C   0  0  0  0  0  0  0  0  0  0  0  0
    2.4327    0.6580    0.5413 C   0  0  0  0  0  0  0  0  0  0  0  0
    1.3842    1.5858    1.1702 C   0  0  0  0  0  0  0  0  0  0  0  0
    1.8632   -0.7307    0.1315 C   0  0  1  0  0  0  0  0  0  0  0  0
    1.2977   -1.4326    1.2835 N   0  0  0  0  0  0  0  0  0  0  0  0
    0.8657   -0.6466   -1.0089 C   0  0  0  0  0  0  0  0  0  0  0  0
    1.2837   -0.8769   -2.1766 O   0  0  0  0  0  0  0  0  0  0  0  0
   -0.5044   -0.2310   -0.8257 N   0  0  0  0  0  0  0  0  0  0  0  0
   -1.1716    0.5766   -1.8419 C   0  0  0  0  0  0  0  0  0  0  0  0
   -2.6662    0.3958   -1.6154 C   0  0  0  0  0  0  0  0  0  0  0  0
   -2.7903   -0.8657   -0.7711 C   0  0  0  0  0  0  0  0  0  0  0  0
   -1.4659   -0.9732   -0.0136 C   0  0  2  0  0  0  0  0  0  0  0  0
   -1.5985   -0.3252    1.4503 B   0  0  0  0  0  0  0  0  0  0  0  0
   -1.4300   -1.1615    2.6359 O   0  0  0  0  0  0  0  0  0  0  0  0
   -1.9197    1.0924    1.6043 O   0  0  0  0  0  0  0  0  0  0  0  0
    3.6405    2.2789   -0.2831 H   0  0  0  0  0  0  0  0  0  0  0  0
    3.8912    0.6901   -1.0864 H   0  0  0  0  0  0  0  0  0  0  0  0
    2.3917    1.6448   -1.4182 H   0  0  0  0  0  0  0  0  0  0  0  0
    3.2149    0.4812    1.3131 H   0  0  0  0  0  0  0  0  0  0  0  0
    0.5920    1.8480    0.4396 H   0  0  0  0  0  0  0  0  0  0  0  0
    1.8670    2.5268    1.5101 H   0  0  0  0  0  0  0  0  0  0  0  0
    0.9260    1.1056    2.0593 H   0  0  0  0  0  0  0  0  0  0  0  0
    2.7278   -1.3356   -0.2306 H   0  0  0  0  0  0  0  0  0  0  0  0
    1.0774   -2.4133    0.9932 H   0  0  0  0  0  0  0  0  0  0  0  0
    2.0355   -1.5133    2.0206 H   0  0  0  0  0  0  0  0  0  0  0  0
   -0.9081    0.2161   -2.8603 H   0  0  0  0  0  0  0  0  0  0  0  0
   -0.8785    1.6432   -1.7371 H   0  0  0  0  0  0  0  0  0  0  0  0
   -3.2172    0.2967   -2.5758 H   0  0  0  0  0  0  0  0  0  0  0  0
   -3.0683    1.2647   -1.0498 H   0  0  0  0  0  0  0  0  0  0  0  0
   -3.6866   -0.8313   -0.1116 H   0  0  0  0  0  0  0  0  0  0  0  0
   -2.8923   -1.7423   -1.4488 H   0  0  0  0  0  0  0  0  0  0  0  0
   -1.1741   -2.0428    0.0690 H   0  0  0  0  0  0  0  0  0  0  0  0
   -2.3379   -1.5063    2.8298 H   0  0  0  0  0  0  0  0  0  0  0  0
   -2.9089    1.1243    1.6393 H   0  0  0  0  0  0  0  0  0  0  0  0
  1  2  1  0
  2  3  1  0
  2  4  1  0
  4  5  1  0
  4  6  1  0
  6  7  2  0
  6  8  1  0
  8  9  1  0
  9 10  1  0
 10 11  1  0
 11 12  1  0
 12 13  1  0
 13 14  1  0
 13 15  1  0
 12  8  1  0
  1 16  1  0
  1 17  1  0
  1 18  1  0
  2 19  1  0
  3 20  1  0
  3 21  1  0
  3 22  1  0
  4 23  1  6
  5 24  1  0
  5 25  1  0
  9 26  1  0
  9 27  1  0
 10 28  1  0
 10 29  1  0
 11 30  1  0
 11 31  1  0
 12 32  1  1
 14 33  1  0
 15 34  1  0
M  END
$$$$
