
     RDKit          3D

 54 56  0  0  0  0  0  0  0  0999 V2000
   -3.8884   -1.7810    1.6998 N   0  0  0  0  0  0  0  0  0  0  0  0
   -3.5883   -0.3474    1.6133 C   0  0  1  0  0  0  0  0  0  0  0  0
   -2.2030   -0.0465    2.2292 C   0  0  0  0  0  0  0  0  0  0  0  0
   -1.0927   -0.8344    1.5734 C   0  0  0  0  0  0  0  0  0  0  0  0
   -0.9182   -2.0287    1.9396 O   0  0  0  0  0  0  0  0  0  0  0  0
   -0.2639   -0.2768    0.5275 N   0  0  0  0  0  0  0  0  0  0  0  0
    0.4505   -1.1640   -0.4020 C   0  0  0  0  0  0  0  0  0  0  0  0
    1.9342   -0.7899   -0.4354 C   0  0  0  0  0  0  0  0  0  0  0  0
    2.1182    0.6614   -0.6020 N   0  0  0  0  0  0  0  0  0  0  0  0
    3.4069    1.1671   -0.9963 C   0  0  0  0  0  0  0  0  0  0  0  0
    3.4800    2.0334   -1.9105 O   0  0  0  0  0  0  0  0  0  0  0  0
    4.6507    0.6905   -0.3527 C   0  0  0  0  0  0  0  0  0  0  0  0
    4.6692    0.3741    1.0146 C   0  0  0  0  0  0  0  0  0  0  0  0
    5.8484   -0.0617    1.6211 C   0  0  0  0  0  0  0  0  0  0  0  0
    7.0227   -0.1762    0.8741 C   0  0  0  0  0  0  0  0  0  0  0  0
    7.0308    0.1526   -0.4929 C   0  0  0  0  0  0  0  0  0  0  0  0
    8.2742    0.0400   -1.2876 C   0  0  0  0  0  0  0  0  0  0  0  0
    9.3436   -0.3536   -0.7479 O   0  0  0  0  0  0  0  0  0  0  0  0
    8.2749    0.3682   -2.6409 O   0  0  0  0  0  0  0  0  0  0  0  0
    5.8389    0.5916   -1.0972 C   0  0  0  0  0  0  0  0  0  0  0  0
    0.9486    1.5466   -0.6699 C   0  0  0  0  0  0  0  0  0  0  0  0
   -0.0671    1.1792    0.4205 C   0  0  0  0  0  0  0  0  0  0  0  0
   -3.6668    0.1400    0.1496 C   0  0  0  0  0  0  0  0  0  0  0  0
   -5.0647    0.0344   -0.4095 C   0  0  0  0  0  0  0  0  0  0  0  0
   -5.4165   -1.0528   -1.2281 C   0  0  0  0  0  0  0  0  0  0  0  0
   -6.7162   -1.1672   -1.7312 C   0  0  0  0  0  0  0  0  0  0  0  0
   -7.0448   -2.2197   -2.5204 F   0  0  0  0  0  0  0  0  0  0  0  0
   -7.6756   -0.1996   -1.4184 C   0  0  0  0  0  0  0  0  0  0  0  0
   -8.9365   -0.3098   -1.9051 F   0  0  0  0  0  0  0  0  0  0  0  0
   -7.3364    0.8819   -0.6008 C   0  0  0  0  0  0  0  0  0  0  0  0
   -6.0380    1.0011   -0.0943 C   0  0  0  0  0  0  0  0  0  0  0  0
   -5.7308    2.0570    0.7013 F   0  0  0  0  0  0  0  0  0  0  0  0
   -3.7995   -2.0790    2.6986 H   0  0  0  0  0  0  0  0  0  0  0  0
   -4.8949   -1.9271    1.4577 H   0  0  0  0  0  0  0  0  0  0  0  0
   -4.3413    0.2146    2.2123 H   0  0  0  0  0  0  0  0  0  0  0  0
   -2.0069    1.0440    2.1945 H   0  0  0  0  0  0  0  0  0  0  0  0
   -2.2281   -0.3092    3.3093 H   0  0  0  0  0  0  0  0  0  0  0  0
    0.3506   -2.2338   -0.1204 H   0  0  0  0  0  0  0  0  0  0  0  0
    0.0157   -1.0486   -1.4185 H   0  0  0  0  0  0  0  0  0  0  0  0
    2.4222   -1.3309   -1.2752 H   0  0  0  0  0  0  0  0  0  0  0  0
    2.4026   -1.1205    0.5145 H   0  0  0  0  0  0  0  0  0  0  0  0
    3.7771    0.4836    1.6186 H   0  0  0  0  0  0  0  0  0  0  0  0
    5.8541   -0.3050    2.6758 H   0  0  0  0  0  0  0  0  0  0  0  0
    7.9245   -0.5159    1.3680 H   0  0  0  0  0  0  0  0  0  0  0  0
    9.1206    0.2946   -3.1938 H   0  0  0  0  0  0  0  0  0  0  0  0
    5.8284    0.8455   -2.1504 H   0  0  0  0  0  0  0  0  0  0  0  0
    1.2527    2.6076   -0.5314 H   0  0  0  0  0  0  0  0  0  0  0  0
    0.4754    1.4502   -1.6713 H   0  0  0  0  0  0  0  0  0  0  0  0
    0.3049    1.5660    1.3942 H   0  0  0  0  0  0  0  0  0  0  0  0
   -1.0285    1.6777    0.1819 H   0  0  0  0  0  0  0  0  0  0  0  0
   -3.3481    1.2029    0.0950 H   0  0  0  0  0  0  0  0  0  0  0  0
   -2.9593   -0.4415   -0.4814 H   0  0  0  0  0  0  0  0  0  0  0  0
   -4.6852   -1.8136   -1.4721 H   0  0  0  0  0  0  0  0  0  0  0  0
   -8.0813    1.6287   -0.3575 H   0  0  0  0  0  0  0  0  0  0  0  0
  1  2  1  0
  2  3  1  0
  3  4  1  0
  4  5  2  0
  4  6  1  0
  6  7  1  0
  7  8  1  0
  8  9  1  0
  9 10  1  0
 10 11  2  0
 10 12  1  0
 12 13  2  0
 13 14  1  0
 14 15  2  0
 15 16  1  0
 16 17  1  0
 17 18  2  0
 17 19  1  0
 16 20  2  0
  9 21  1  0
 21 22  1  0
  2 23  1  0
 23 24  1  0
 24 25  2  0
 25 26  1  0
 26 27  1  0
 26 28  2  0
 28 29  1  0
 28 30  1  0
 30 31  2  0
 31 32  1  0
 22  6  1  0
 31 24  1  0
 20 12  1  0
  1 33  1  0
  1 34  1  0
  2 35  1  1
  3 36  1  0
  3 37  1  0
  7 38  1  0
  7 39  1  0
  8 40  1  0
  8 41  1  0
 13 42  1  0
 14 43  1  0
 15 44  1  0
 19 45  1  0
 20 46  1  0
 21 47  1  0
 21 48  1  0
 22 49  1  0
 22 50  1  0
 23 51  1  0
 23 52  1  0
 25 53  1  0
 30 54  1  0
M  END
$$$$
