
     RDKit          3D

 49 51  0  0  0  0  0  0  0  0999 V2000
   -7.5564    0.5819    2.3391 N   0  0  0  0  0  0  0  0  0  0  0  0
   -6.6464    0.8812    1.6898 C   0  0  0  0  0  0  0  0  0  0  0  0
   -5.4876    1.2621    0.8638 C   0  0  2  0  0  0  0  0  0  0  0  0
   -5.8061    1.1220   -0.6264 C   0  0  0  0  0  0  0  0  0  0  0  0
   -4.5799    0.4654   -1.2519 C   0  0  0  0  0  0  0  0  0  0  0  0
   -3.8489   -0.2278   -0.1107 C   0  0  0  0  0  0  0  0  0  0  0  0
   -4.3590    0.3739    1.1121 N   0  0  0  0  0  0  0  0  0  0  0  0
   -3.7365    0.2299    2.4063 C   0  0  0  0  0  0  0  0  0  0  0  0
   -4.1290    0.9427    3.3695 O   0  0  0  0  0  0  0  0  0  0  0  0
   -2.6276   -0.7582    2.6534 C   0  0  0  0  0  0  0  0  0  0  0  0
   -1.4074   -0.0713    3.1011 N   0  0  0  0  0  0  0  0  0  0  0  0
   -0.7153    0.6461    2.0156 C   0  0  0  0  0  0  0  0  0  0  0  0
    0.1230   -0.2934    1.1264 C   0  0  0  0  0  0  0  0  0  0  0  0
    0.9069    0.4640    0.0809 C   0  0  0  0  0  0  0  0  0  0  0  0
    0.4249    1.5278   -0.3984 O   0  0  0  0  0  0  0  0  0  0  0  0
    2.1675   -0.0309   -0.4213 N   0  0  0  0  0  0  0  0  0  0  0  0
    2.5430   -1.4427   -0.2234 C   0  0  0  0  0  0  0  0  0  0  0  0
    3.4789   -1.9345   -1.3270 C   0  0  0  0  0  0  0  0  0  0  0  0
    4.6529   -1.0129   -1.4533 C   0  0  0  0  0  0  0  0  0  0  0  0
    5.9299   -1.5142   -1.7512 C   0  0  0  0  0  0  0  0  0  0  0  0
    7.0096   -0.6395   -1.9022 C   0  0  0  0  0  0  0  0  0  0  0  0
    8.2427   -1.1274   -2.1841 F   0  0  0  0  0  0  0  0  0  0  0  0
    6.8167    0.7382   -1.7726 C   0  0  0  0  0  0  0  0  0  0  0  0
    5.5444    1.2444   -1.4925 C   0  0  0  0  0  0  0  0  0  0  0  0
    4.4569    0.3726   -1.3221 C   0  0  0  0  0  0  0  0  0  0  0  0
    3.0757    0.9302   -1.0773 C   0  0  0  0  0  0  0  0  0  0  0  0
   -5.1933    2.3088    1.0963 H   0  0  0  0  0  0  0  0  0  0  0  0
   -6.0064    2.1136   -1.0879 H   0  0  0  0  0  0  0  0  0  0  0  0
   -6.6887    0.4643   -0.7980 H   0  0  0  0  0  0  0  0  0  0  0  0
   -3.9251    1.2497   -1.6920 H   0  0  0  0  0  0  0  0  0  0  0  0
   -4.8664   -0.2572   -2.0467 H   0  0  0  0  0  0  0  0  0  0  0  0
   -4.0695   -1.3171   -0.1099 H   0  0  0  0  0  0  0  0  0  0  0  0
   -2.7556   -0.0603   -0.2090 H   0  0  0  0  0  0  0  0  0  0  0  0
   -2.9674   -1.4417    3.4616 H   0  0  0  0  0  0  0  0  0  0  0  0
   -2.4304   -1.4023    1.7741 H   0  0  0  0  0  0  0  0  0  0  0  0
   -0.7592   -0.7764    3.5241 H   0  0  0  0  0  0  0  0  0  0  0  0
   -1.4413    1.2206    1.4003 H   0  0  0  0  0  0  0  0  0  0  0  0
   -0.0333    1.3907    2.4802 H   0  0  0  0  0  0  0  0  0  0  0  0
    0.8259   -0.8549    1.7774 H   0  0  0  0  0  0  0  0  0  0  0  0
   -0.5313   -1.0209    0.6051 H   0  0  0  0  0  0  0  0  0  0  0  0
    3.0368   -1.5551    0.7663 H   0  0  0  0  0  0  0  0  0  0  0  0
    1.6386   -2.0887   -0.2409 H   0  0  0  0  0  0  0  0  0  0  0  0
    3.8108   -2.9677   -1.0845 H   0  0  0  0  0  0  0  0  0  0  0  0
    2.9335   -1.9592   -2.2951 H   0  0  0  0  0  0  0  0  0  0  0  0
    6.0877   -2.5793   -1.8677 H   0  0  0  0  0  0  0  0  0  0  0  0
    7.6512    1.4160   -1.8981 H   0  0  0  0  0  0  0  0  0  0  0  0
    5.4056    2.3155   -1.4122 H   0  0  0  0  0  0  0  0  0  0  0  0
    2.6393    1.2377   -2.0516 H   0  0  0  0  0  0  0  0  0  0  0  0
    3.1656    1.8345   -0.4355 H   0  0  0  0  0  0  0  0  0  0  0  0
  1  2  3  0
  2  3  1  0
  3  4  1  0
  4  5  1  0
  5  6  1  0
  6  7  1  0
  7  8  1  0
  8  9  2  0
  8 10  1  0
 10 11  1  0
 11 12  1  0
 12 13  1  0
 13 14  1  0
 14 15  2  0
 14 16  1  0
 16 17  1  0
 17 18  1  0
 18 19  1  0
 19 20  2  0
 20 21  1  0
 21 22  1  0
 21 23  2  0
 23 24  1  0
 24 25  2  0
 25 26  1  0
  7  3  1  0
 26 16  1  0
 25 19  1  0
  3 27  1  6
  4 28  1  0
  4 29  1  0
  5 30  1  0
  5 31  1  0
  6 32  1  0
  6 33  1  0
 10 34  1  0
 10 35  1  0
 11 36  1  0
 12 37  1  0
 12 38  1  0
 13 39  1  0
 13 40  1  0
 17 41  1  0
 17 42  1  0
 18 43  1  0
 18 44  1  0
 20 45  1  0
 23 46  1  0
 24 47  1  0
 26 48  1  0
 26 49  1  0
M  END
$$$$
