
     RDKit          3D

 59 62  0  0  0  0  0  0  0  0999 V2000
    1.6833   -0.5552   -2.7185 N   0  0  0  0  0  0  0  0  0  0  0  0
    1.3695    0.1751   -1.4873 C   0  0  1  0  0  0  0  0  0  0  0  0
    2.6536    0.4285   -0.6746 C   0  0  0  0  0  0  0  0  0  0  0  0
    3.1187   -0.8224    0.0138 C   0  0  0  0  0  0  0  0  0  0  0  0
    2.5986   -1.3550    1.1900 C   0  0  0  0  0  0  0  0  0  0  0  0
    3.1995   -2.5305    1.4827 N   0  0  0  0  0  0  0  0  0  0  0  0
    4.0871   -2.7495    0.4970 C   0  0  0  0  0  0  0  0  0  0  0  0
    4.9331   -3.8480    0.3517 C   0  0  0  0  0  0  0  0  0  0  0  0
    5.7740   -3.8860   -0.7756 C   0  0  0  0  0  0  0  0  0  0  0  0
    5.7479   -2.8391   -1.7235 C   0  0  0  0  0  0  0  0  0  0  0  0
    4.8823   -1.7434   -1.5523 C   0  0  0  0  0  0  0  0  0  0  0  0
    4.0643   -1.7308   -0.4218 C   0  0  0  0  0  0  0  0  0  0  0  0
    0.7131    1.4961   -1.8307 C   0  0  0  0  0  0  0  0  0  0  0  0
    1.1914    2.1711   -2.7843 O   0  0  0  0  0  0  0  0  0  0  0  0
   -0.4230    2.0124   -1.0950 N   0  0  0  0  0  0  0  0  0  0  0  0
   -1.2400    3.0557   -1.7493 C   0  0  0  0  0  0  0  0  0  0  0  0
   -2.4936    3.4098   -0.9859 C   0  0  0  0  0  0  0  0  0  0  0  0
   -3.5721    4.0118   -1.6541 C   0  0  0  0  0  0  0  0  0  0  0  0
   -4.7189    4.3859   -0.9481 C   0  0  0  0  0  0  0  0  0  0  0  0
   -4.7912    4.1773    0.4310 C   0  0  0  0  0  0  0  0  0  0  0  0
   -3.7169    3.5944    1.1079 C   0  0  0  0  0  0  0  0  0  0  0  0
   -2.5682    3.2039    0.4021 C   0  0  0  0  0  0  0  0  0  0  0  0
   -1.3986    2.5995    1.1179 C   0  0  0  0  0  0  0  0  0  0  0  0
   -0.7418    1.5102    0.2590 C   0  0  1  0  0  0  0  0  0  0  0  0
   -1.6210    0.2863    0.1824 C   0  0  0  0  0  0  0  0  0  0  0  0
   -2.5277    0.2147   -0.6921 O   0  0  0  0  0  0  0  0  0  0  0  0
   -1.4409   -0.7812    1.1240 N   0  0  0  0  0  0  0  0  0  0  0  0
   -2.2300   -2.0150    1.0619 C   0  0  1  0  0  0  0  0  0  0  0  0
   -1.5880   -3.1246    1.9107 C   0  0  0  0  0  0  0  0  0  0  0  0
   -1.6049   -2.7951    3.2762 O   0  0  0  0  0  0  0  0  0  0  0  0
   -3.6399   -1.7528    1.5112 C   0  0  0  0  0  0  0  0  0  0  0  0
   -4.5988   -2.3534    0.9566 O   0  0  0  0  0  0  0  0  0  0  0  0
   -3.8869   -0.8777    2.5655 O   0  0  0  0  0  0  0  0  0  0  0  0
    0.7945   -0.6963   -3.2525 H   0  0  0  0  0  0  0  0  0  0  0  0
    2.0113   -1.5145   -2.4625 H   0  0  0  0  0  0  0  0  0  0  0  0
    0.6713   -0.4456   -0.8880 H   0  0  0  0  0  0  0  0  0  0  0  0
    3.4540    0.8236   -1.3366 H   0  0  0  0  0  0  0  0  0  0  0  0
    2.4691    1.1988    0.1052 H   0  0  0  0  0  0  0  0  0  0  0  0
    1.8150   -0.9118    1.7901 H   0  0  0  0  0  0  0  0  0  0  0  0
    3.0001   -3.1471    2.3015 H   0  0  0  0  0  0  0  0  0  0  0  0
    4.9415   -4.6485    1.0802 H   0  0  0  0  0  0  0  0  0  0  0  0
    6.4428   -4.7246   -0.9189 H   0  0  0  0  0  0  0  0  0  0  0  0
    6.3967   -2.8809   -2.5887 H   0  0  0  0  0  0  0  0  0  0  0  0
    4.8546   -0.9420   -2.2787 H   0  0  0  0  0  0  0  0  0  0  0  0
   -1.5288    2.6988   -2.7626 H   0  0  0  0  0  0  0  0  0  0  0  0
   -0.6298    3.9767   -1.8666 H   0  0  0  0  0  0  0  0  0  0  0  0
   -3.5232    4.1932   -2.7207 H   0  0  0  0  0  0  0  0  0  0  0  0
   -5.5490    4.8448   -1.4695 H   0  0  0  0  0  0  0  0  0  0  0  0
   -5.6777    4.4736    0.9768 H   0  0  0  0  0  0  0  0  0  0  0  0
   -3.7807    3.4474    2.1789 H   0  0  0  0  0  0  0  0  0  0  0  0
   -0.6574    3.4026    1.3208 H   0  0  0  0  0  0  0  0  0  0  0  0
   -1.7086    2.1687    2.0961 H   0  0  0  0  0  0  0  0  0  0  0  0
    0.2011    1.2393    0.7796 H   0  0  0  0  0  0  0  0  0  0  0  0
   -0.7061   -0.6720    1.8585 H   0  0  0  0  0  0  0  0  0  0  0  0
   -2.2450   -2.3727    0.0078 H   0  0  0  0  0  0  0  0  0  0  0  0
   -2.1588   -4.0675    1.7693 H   0  0  0  0  0  0  0  0  0  0  0  0
   -0.5480   -3.3158    1.5552 H   0  0  0  0  0  0  0  0  0  0  0  0
   -0.7207   -2.3998    3.4930 H   0  0  0  0  0  0  0  0  0  0  0  0
   -4.8321   -0.7015    2.8841 H   0  0  0  0  0  0  0  0  0  0  0  0
  1  2  1  0
  2  3  1  0
  3  4  1  0
  4  5  2  0
  5  6  1  0
  6  7  1  0
  7  8  2  0
  8  9  1  0
  9 10  2  0
 10 11  1  0
 11 12  2  0
  2 13  1  0
 13 14  2  0
 13 15  1  0
 15 16  1  0
 16 17  1  0
 17 18  2  0
 18 19  1  0
 19 20  2  0
 20 21  1  0
 21 22  2  0
 22 23  1  0
 23 24  1  0
 24 25  1  0
 25 26  2  0
 25 27  1  0
 27 28  1  0
 28 29  1  0
 29 30  1  0
 28 31  1  0
 31 32  2  0
 31 33  1  0
 12  4  1  0
 24 15  1  0
 12  7  1  0
 22 17  1  0
  1 34  1  0
  1 35  1  0
  2 36  1  1
  3 37  1  0
  3 38  1  0
  5 39  1  0
  6 40  1  0
  8 41  1  0
  9 42  1  0
 10 43  1  0
 11 44  1  0
 16 45  1  0
 16 46  1  0
 18 47  1  0
 19 48  1  0
 20 49  1  0
 21 50  1  0
 23 51  1  0
 23 52  1  0
 24 53  1  1
 27 54  1  0
 28 55  1  6
 29 56  1  0
 29 57  1  0
 30 58  1  0
 33 59  1  0
M  END
$$$$
