
     RDKit          3D

 67 72  0  0  0  0  0  0  0  0999 V2000
   -2.7525    4.9461    0.9889 C   0  0  0  0  0  0  0  0  0  0  0  0
   -2.4831    3.5468    1.3176 C   0  0  0  0  0  0  0  0  0  0  0  0
   -2.2630    2.3926    1.5854 C   0  0  0  0  0  0  0  0  0  0  0  0
   -1.9994    0.9866    1.9032 C   0  0  0  0  0  0  0  0  0  0  0  0
   -1.6982    0.2431    0.6784 N   0  0  0  0  0  0  0  0  0  0  0  0
   -2.5351   -0.5360   -0.0595 C   0  0  0  0  0  0  0  0  0  0  0  0
   -3.9413   -0.6857    0.1979 N   0  0  0  0  0  0  0  0  0  0  0  0
   -4.5462   -2.0138    0.0384 C   0  0  0  0  0  0  0  0  0  0  0  0
   -5.8936   -2.0762    0.7623 C   0  0  0  0  0  0  0  0  0  0  0  0
   -6.8674   -0.9766    0.2917 C   0  0  0  0  0  0  0  0  0  0  0  0
   -6.1686    0.2522   -0.3361 C   0  0  1  0  0  0  0  0  0  0  0  0
   -7.0167    1.4376   -0.2026 N   0  0  0  0  0  0  0  0  0  0  0  0
   -4.7980    0.5053    0.3134 C   0  0  0  0  0  0  0  0  0  0  0  0
   -1.9207   -1.1612   -1.0948 N   0  0  0  0  0  0  0  0  0  0  0  0
   -0.6517   -0.7233   -0.9970 C   0  0  0  0  0  0  0  0  0  0  0  0
   -0.5096    0.1227    0.0548 C   0  0  0  0  0  0  0  0  0  0  0  0
    0.7823    0.7473    0.3574 C   0  0  0  0  0  0  0  0  0  0  0  0
    0.9107    1.5249    1.3407 O   0  0  0  0  0  0  0  0  0  0  0  0
    1.9032    0.4517   -0.5084 N   0  0  0  0  0  0  0  0  0  0  0  0
    3.2328    1.0142   -0.2143 C   0  0  0  0  0  0  0  0  0  0  0  0
    4.1130    0.0779    0.6046 C   0  0  0  0  0  0  0  0  0  0  0  0
    3.5976   -1.1331    1.1165 C   0  0  0  0  0  0  0  0  0  0  0  0
    4.3982   -1.9984    1.8596 C   0  0  0  0  0  0  0  0  0  0  0  0
    5.7269   -1.6798    2.1200 C   0  0  0  0  0  0  0  0  0  0  0  0
    6.2709   -0.4810    1.6443 C   0  0  0  0  0  0  0  0  0  0  0  0
    7.6103   -0.1649    1.9226 C   0  0  0  0  0  0  0  0  0  0  0  0
    8.1618    1.0305    1.4628 C   0  0  0  0  0  0  0  0  0  0  0  0
    7.3841    1.9212    0.7250 C   0  0  0  0  0  0  0  0  0  0  0  0
    6.0500    1.6227    0.4374 C   0  0  0  0  0  0  0  0  0  0  0  0
    5.4679    0.4151    0.8856 C   0  0  0  0  0  0  0  0  0  0  0  0
    1.7200   -0.4562   -1.6303 C   0  0  0  0  0  0  0  0  0  0  0  0
    2.7267   -0.7446   -2.4047 N   0  0  0  0  0  0  0  0  0  0  0  0
    2.6155   -1.6106   -3.5771 C   0  0  0  0  0  0  0  0  0  0  0  0
    1.5546   -2.6883   -3.3569 C   0  0  0  0  0  0  0  0  0  0  0  0
    0.2318   -2.0294   -2.9620 C   0  0  0  0  0  0  0  0  0  0  0  0
    0.4344   -1.0878   -1.8549 N   0  0  0  0  0  0  0  0  0  0  0  0
   -3.6988    5.0147    0.4138 H   0  0  0  0  0  0  0  0  0  0  0  0
   -1.9186    5.3495    0.3783 H   0  0  0  0  0  0  0  0  0  0  0  0
   -2.8446    5.5349    1.9246 H   0  0  0  0  0  0  0  0  0  0  0  0
   -1.1513    0.9192    2.6144 H   0  0  0  0  0  0  0  0  0  0  0  0
   -2.8779    0.5484    2.4180 H   0  0  0  0  0  0  0  0  0  0  0  0
   -4.6867   -2.2321   -1.0427 H   0  0  0  0  0  0  0  0  0  0  0  0
   -3.8744   -2.7882    0.4692 H   0  0  0  0  0  0  0  0  0  0  0  0
   -5.7097   -1.9563    1.8529 H   0  0  0  0  0  0  0  0  0  0  0  0
   -6.3534   -3.0763    0.6084 H   0  0  0  0  0  0  0  0  0  0  0  0
   -7.5671   -1.4054   -0.4588 H   0  0  0  0  0  0  0  0  0  0  0  0
   -7.4804   -0.6584    1.1640 H   0  0  0  0  0  0  0  0  0  0  0  0
   -6.0012    0.0474   -1.4192 H   0  0  0  0  0  0  0  0  0  0  0  0
   -6.5609    2.2288   -0.7134 H   0  0  0  0  0  0  0  0  0  0  0  0
   -7.9170    1.2536   -0.7028 H   0  0  0  0  0  0  0  0  0  0  0  0
   -4.3175    1.3681   -0.1988 H   0  0  0  0  0  0  0  0  0  0  0  0
   -4.9384    0.7620    1.3847 H   0  0  0  0  0  0  0  0  0  0  0  0
    3.7428    1.2537   -1.1719 H   0  0  0  0  0  0  0  0  0  0  0  0
    3.1283    1.9775    0.3295 H   0  0  0  0  0  0  0  0  0  0  0  0
    2.5713   -1.4273    0.9471 H   0  0  0  0  0  0  0  0  0  0  0  0
    3.9836   -2.9243    2.2374 H   0  0  0  0  0  0  0  0  0  0  0  0
    6.3292   -2.3695    2.6997 H   0  0  0  0  0  0  0  0  0  0  0  0
    8.2303   -0.8423    2.4981 H   0  0  0  0  0  0  0  0  0  0  0  0
    9.1947    1.2686    1.6817 H   0  0  0  0  0  0  0  0  0  0  0  0
    7.8164    2.8497    0.3746 H   0  0  0  0  0  0  0  0  0  0  0  0
    5.4877    2.3497   -0.1315 H   0  0  0  0  0  0  0  0  0  0  0  0
    2.3388   -0.9932   -4.4591 H   0  0  0  0  0  0  0  0  0  0  0  0
    3.5997   -2.0835   -3.7776 H   0  0  0  0  0  0  0  0  0  0  0  0
    1.4185   -3.2807   -4.2872 H   0  0  0  0  0  0  0  0  0  0  0  0
    1.8855   -3.3735   -2.5459 H   0  0  0  0  0  0  0  0  0  0  0  0
   -0.4863   -2.8244   -2.6650 H   0  0  0  0  0  0  0  0  0  0  0  0
   -0.1900   -1.4822   -3.8328 H   0  0  0  0  0  0  0  0  0  0  0  0
  1  2  1  0
  2  3  3  0
  3  4  1  0
  4  5  1  0
  5  6  1  0
  6  7  1  0
  7  8  1  0
  8  9  1  0
  9 10  1  0
 10 11  1  0
 11 12  1  0
 11 13  1  0
  6 14  2  0
 14 15  1  0
 15 16  2  0
 16 17  1  0
 17 18  2  0
 17 19  1  0
 19 20  1  0
 20 21  1  0
 21 22  2  0
 22 23  1  0
 23 24  2  0
 24 25  1  0
 25 26  2  0
 26 27  1  0
 27 28  2  0
 28 29  1  0
 29 30  2  0
 19 31  1  0
 31 32  2  0
 32 33  1  0
 33 34  1  0
 34 35  1  0
 35 36  1  0
 16  5  1  0
 30 21  1  0
 36 31  1  0
 13  7  1  0
 36 15  1  0
 30 25  1  0
  1 37  1  0
  1 38  1  0
  1 39  1  0
  4 40  1  0
  4 41  1  0
  8 42  1  0
  8 43  1  0
  9 44  1  0
  9 45  1  0
 10 46  1  0
 10 47  1  0
 11 48  1  6
 12 49  1  0
 12 50  1  0
 13 51  1  0
 13 52  1  0
 20 53  1  0
 20 54  1  0
 22 55  1  0
 23 56  1  0
 24 57  1  0
 26 58  1  0
 27 59  1  0
 28 60  1  0
 29 61  1  0
 33 62  1  0
 33 63  1  0
 34 64  1  0
 34 65  1  0
 35 66  1  0
 35 67  1  0
M  END
$$$$
