
     RDKit          3D

 42 42  0  0  0  0  0  0  0  0999 V2000
    2.7064    0.6799   -2.8192 N   0  0  0  0  0  0  0  0  0  0  0  0
    3.6383    0.7544   -1.9215 C   0  0  0  0  0  0  0  0  0  0  0  0
    4.4080    1.9517   -1.7874 N   0  0  0  0  0  0  0  0  0  0  0  0
    3.9118   -0.3640   -1.0641 N   0  0  0  0  0  0  0  0  0  0  0  0
    3.1359   -1.6047   -1.0931 C   0  0  0  0  0  0  0  0  0  0  0  0
    1.7511   -1.4107   -0.4619 C   0  0  0  0  0  0  0  0  0  0  0  0
    1.8479   -1.0907    1.0413 C   0  0  0  0  0  0  0  0  0  0  0  0
    0.4919   -0.7602    1.7103 C   0  0  2  0  0  0  0  0  0  0  0  0
   -0.4292   -1.9013    1.6974 N   0  0  0  0  0  0  0  0  0  0  0  0
   -0.1481    0.4783    1.1280 C   0  0  0  0  0  0  0  0  0  0  0  0
    0.4494    1.5841    1.2217 O   0  0  0  0  0  0  0  0  0  0  0  0
   -1.4450    0.4320    0.5167 N   0  0  0  0  0  0  0  0  0  0  0  0
   -1.6078    0.1776   -0.9055 C   0  0  0  0  0  0  0  0  0  0  0  0
   -2.9405    0.8157   -1.2907 C   0  0  1  0  0  0  0  0  0  0  0  0
   -3.6573   -0.0206   -2.1600 O   0  0  0  0  0  0  0  0  0  0  0  0
   -3.6897    1.0261    0.0271 C   0  0  0  0  0  0  0  0  0  0  0  0
   -2.5974    1.1066    1.0945 C   0  0  1  0  0  0  0  0  0  0  0  0
   -3.0334    0.4266    2.4805 B   0  0  0  0  0  0  0  0  0  0  0  0
   -3.3670   -0.9954    2.5330 O   0  0  0  0  0  0  0  0  0  0  0  0
   -3.0344    1.2165    3.7090 O   0  0  0  0  0  0  0  0  0  0  0  0
    2.4910    1.4792   -3.4559 H   0  0  0  0  0  0  0  0  0  0  0  0
    4.2292    2.7764   -2.4027 H   0  0  0  0  0  0  0  0  0  0  0  0
    5.1597    2.0184   -1.0661 H   0  0  0  0  0  0  0  0  0  0  0  0
    4.7280   -0.3082   -0.4141 H   0  0  0  0  0  0  0  0  0  0  0  0
    3.6846   -2.3974   -0.5389 H   0  0  0  0  0  0  0  0  0  0  0  0
    3.0251   -1.9509   -2.1434 H   0  0  0  0  0  0  0  0  0  0  0  0
    1.1784   -2.3504   -0.6075 H   0  0  0  0  0  0  0  0  0  0  0  0
    1.2181   -0.5982   -0.9939 H   0  0  0  0  0  0  0  0  0  0  0  0
    2.3066   -1.9571    1.5662 H   0  0  0  0  0  0  0  0  0  0  0  0
    2.5285   -0.2243    1.1913 H   0  0  0  0  0  0  0  0  0  0  0  0
    0.7079   -0.5265    2.7764 H   0  0  0  0  0  0  0  0  0  0  0  0
    0.0361   -2.7166    2.1585 H   0  0  0  0  0  0  0  0  0  0  0  0
   -0.6500   -2.1800    0.7160 H   0  0  0  0  0  0  0  0  0  0  0  0
   -1.6157   -0.9183   -1.0874 H   0  0  0  0  0  0  0  0  0  0  0  0
   -0.7827    0.6462   -1.4853 H   0  0  0  0  0  0  0  0  0  0  0  0
   -2.7461    1.8031   -1.7718 H   0  0  0  0  0  0  0  0  0  0  0  0
   -4.4187    0.5170   -2.5018 H   0  0  0  0  0  0  0  0  0  0  0  0
   -4.3706    0.1627    0.2027 H   0  0  0  0  0  0  0  0  0  0  0  0
   -4.2942    1.9589   -0.0011 H   0  0  0  0  0  0  0  0  0  0  0  0
   -2.3416    2.1735    1.2787 H   0  0  0  0  0  0  0  0  0  0  0  0
   -4.3483   -1.0298    2.4039 H   0  0  0  0  0  0  0  0  0  0  0  0
   -2.1163    1.1204    4.0682 H   0  0  0  0  0  0  0  0  0  0  0  0
  1  2  2  3
  2  3  1  0
  2  4  1  0
  4  5  1  0
  5  6  1  0
  6  7  1  0
  7  8  1  0
  8  9  1  0
  8 10  1  0
 10 11  2  0
 10 12  1  0
 12 13  1  0
 13 14  1  0
 14 15  1  0
 14 16  1  0
 16 17  1  0
 17 18  1  0
 18 19  1  0
 18 20  1  0
 17 12  1  0
  1 21  1  0
  3 22  1  0
  3 23  1  0
  4 24  1  0
  5 25  1  0
  5 26  1  0
  6 27  1  0
  6 28  1  0
  7 29  1  0
  7 30  1  0
  8 31  1  1
  9 32  1  0
  9 33  1  0
 13 34  1  0
 13 35  1  0
 14 36  1  6
 15 37  1  0
 16 38  1  0
 16 39  1  0
 17 40  1  1
 19 41  1  0
 20 42  1  0
M  END
$$$$
