
     RDKit          3D

 51 52  0  0  0  0  0  0  0  0999 V2000
   -0.3883   -1.8725    3.6975 C   0  0  0  0  0  0  0  0  0  0  0  0
   -0.1210   -2.0527    2.1962 C   0  0  2  0  0  0  0  0  0  0  0  0
    0.4579   -0.7874    1.6184 C   0  0  0  0  0  0  0  0  0  0  0  0
    1.4232   -0.7756    0.6760 N   0  0  0  0  0  0  0  0  0  0  0  0
    1.5970    0.5369    0.4240 C   0  0  0  0  0  0  0  0  0  0  0  0
    2.5584    1.0831   -0.5633 C   0  0  0  0  0  0  0  0  0  0  0  0
    3.1342    2.3471   -0.3347 C   0  0  0  0  0  0  0  0  0  0  0  0
    4.0528    2.8861   -1.2380 C   0  0  0  0  0  0  0  0  0  0  0  0
    4.4076    2.1746   -2.3849 C   0  0  0  0  0  0  0  0  0  0  0  0
    5.5604    2.8551   -3.5186 Cl  0  0  0  0  0  0  0  0  0  0  0  0
    3.8390    0.9231   -2.6320 C   0  0  0  0  0  0  0  0  0  0  0  0
    2.9167    0.3711   -1.7338 C   0  0  0  0  0  0  0  0  0  0  0  0
    2.1943   -1.1788   -2.1584 Cl  0  0  0  0  0  0  0  0  0  0  0  0
    0.7442    1.2685    1.2262 C   0  0  0  0  0  0  0  0  0  0  0  0
    0.0551    0.4208    1.9464 O   0  0  0  0  0  0  0  0  0  0  0  0
   -1.3981   -2.5304    1.4413 C   0  0  2  0  0  0  0  0  0  0  0  0
   -1.0858   -3.1185    0.1334 N   0  0  0  0  0  0  0  0  0  0  0  0
   -2.4662   -1.4549    1.3333 C   0  0  0  0  0  0  0  0  0  0  0  0
   -3.3875   -1.4531    2.1950 O   0  0  0  0  0  0  0  0  0  0  0  0
   -2.4244   -0.3871    0.3637 N   0  0  0  0  0  0  0  0  0  0  0  0
   -1.8789   -0.4821   -0.9818 C   0  0  0  0  0  0  0  0  0  0  0  0
   -2.3286    0.7826   -1.7007 C   0  0  0  0  0  0  0  0  0  0  0  0
   -2.7466    1.7538   -0.6032 C   0  0  0  0  0  0  0  0  0  0  0  0
   -3.0817    0.8872    0.6011 C   0  0  0  0  0  0  0  0  0  0  0  0
    0.7555    0.0117   -1.5452 O   0  0  0  0  0  0  0  0  0  0  0  0
    0.4712   -0.0026   -0.3176 C   0  0  0  0  0  0  0  0  0  0  0  0
    1.4836   -0.1422    0.6270 O   0  0  0  0  0  0  0  0  0  0  0  0
   -0.9557    0.0704    0.1204 C   0  0  0  0  0  0  0  0  0  0  0  0
   -1.5207   -1.1891    0.0540 F   0  0  0  0  0  0  0  0  0  0  0  0
   -1.6595    0.9306   -0.7029 F   0  0  0  0  0  0  0  0  0  0  0  0
   -1.0278    0.5334    1.4216 F   0  0  0  0  0  0  0  0  0  0  0  0
   -0.7397   -2.8275    4.1429 H   0  0  0  0  0  0  0  0  0  0  0  0
   -1.1580   -1.0911    3.8738 H   0  0  0  0  0  0  0  0  0  0  0  0
    0.5470   -1.5747    4.2184 H   0  0  0  0  0  0  0  0  0  0  0  0
    0.6482   -2.8518    2.1049 H   0  0  0  0  0  0  0  0  0  0  0  0
    2.8888    2.9140    0.5544 H   0  0  0  0  0  0  0  0  0  0  0  0
    4.4907    3.8568   -1.0429 H   0  0  0  0  0  0  0  0  0  0  0  0
    4.1080    0.3811   -3.5302 H   0  0  0  0  0  0  0  0  0  0  0  0
    0.6342    2.3439    1.2644 H   0  0  0  0  0  0  0  0  0  0  0  0
   -1.8451   -3.3483    2.0544 H   0  0  0  0  0  0  0  0  0  0  0  0
   -0.7867   -4.1106    0.2786 H   0  0  0  0  0  0  0  0  0  0  0  0
   -0.2660   -2.6385   -0.2993 H   0  0  0  0  0  0  0  0  0  0  0  0
   -2.2749   -1.3803   -1.5026 H   0  0  0  0  0  0  0  0  0  0  0  0
   -0.7725   -0.5091   -0.9449 H   0  0  0  0  0  0  0  0  0  0  0  0
   -1.5133    1.2066   -2.3267 H   0  0  0  0  0  0  0  0  0  0  0  0
   -3.2051    0.5543   -2.3464 H   0  0  0  0  0  0  0  0  0  0  0  0
   -1.8917    2.4211   -0.3551 H   0  0  0  0  0  0  0  0  0  0  0  0
   -3.6165    2.3711   -0.9157 H   0  0  0  0  0  0  0  0  0  0  0  0
   -4.1805    0.7341    0.6743 H   0  0  0  0  0  0  0  0  0  0  0  0
   -2.7006    1.3520    1.5363 H   0  0  0  0  0  0  0  0  0  0  0  0
    2.4534   -0.2121    0.3427 H   0  0  0  0  0  0  0  0  0  0  0  0
  1  2  1  0
  2  3  1  0
  3  4  2  0
  4  5  1  0
  5  6  1  0
  6  7  2  0
  7  8  1  0
  8  9  2  0
  9 10  1  0
  9 11  1  0
 11 12  2  0
 12 13  1  0
  5 14  2  0
 14 15  1  0
  2 16  1  0
 16 17  1  0
 16 18  1  0
 18 19  2  0
 18 20  1  0
 20 21  1  0
 21 22  1  0
 22 23  1  0
 23 24  1  0
 25 26  2  0
 26 27  1  0
 26 28  1  0
 28 29  1  0
 28 30  1  0
 28 31  1  0
 15  3  1  0
 24 20  1  0
 12  6  1  0
  1 32  1  0
  1 33  1  0
  1 34  1  0
  2 35  1  1
  7 36  1  0
  8 37  1  0
 11 38  1  0
 14 39  1  0
 16 40  1  1
 17 41  1  0
 17 42  1  0
 21 43  1  0
 21 44  1  0
 22 45  1  0
 22 46  1  0
 23 47  1  0
 23 48  1  0
 24 49  1  0
 24 50  1  0
 27 51  1  0
M  END
$$$$
