
     RDKit          3D

 68 72  0  0  0  0  0  0  0  0999 V2000
    7.2114    2.7785    1.3581 N   0  0  0  0  0  0  0  0  0  0  0  0
    7.8803    1.7740    2.1850 C   0  0  0  0  0  0  0  0  0  0  0  0
    7.2195    0.3887    2.0785 C   0  0  0  0  0  0  0  0  0  0  0  0
    7.4160   -0.2533    0.6957 C   0  0  0  0  0  0  0  0  0  0  0  0
    6.8934   -1.6954    0.6568 C   0  0  0  0  0  0  0  0  0  0  0  0
    5.4557   -1.7463    0.9211 N   0  0  0  0  0  0  0  0  0  0  0  0
    4.4761   -1.3036   -0.0243 C   0  0  0  0  0  0  0  0  0  0  0  0
    4.8342   -0.9106   -1.1676 O   0  0  0  0  0  0  0  0  0  0  0  0
    3.1233   -1.3200    0.3449 O   0  0  0  0  0  0  0  0  0  0  0  0
    2.0181   -0.8784   -0.4566 C   0  0  0  0  0  0  0  0  0  0  0  0
    2.1500    0.6259   -0.8127 C   0  0  0  0  0  0  0  0  0  0  0  0
    0.9170    1.0793   -1.6217 C   0  0  0  0  0  0  0  0  0  0  0  0
    0.8099    0.2385   -2.9137 C   0  0  0  0  0  0  0  0  0  0  0  0
    0.6595   -1.2568   -2.5539 C   0  0  0  0  0  0  0  0  0  0  0  0
   -0.6168   -1.4588   -1.7091 C   0  0  0  0  0  0  0  0  0  0  0  0
   -0.5354   -0.6130   -0.4055 C   0  0  0  0  0  0  0  0  0  0  0  0
   -1.7231   -0.8536    0.4530 N   0  0  0  0  0  0  0  0  0  0  0  0
   -2.9830   -0.2580   -0.0256 C   0  0  0  0  0  0  0  0  0  0  0  0
   -4.1597   -0.8532    0.6995 C   0  0  0  0  0  0  0  0  0  0  0  0
   -4.0127   -1.9119    1.3700 O   0  0  0  0  0  0  0  0  0  0  0  0
   -5.4628   -0.2567    0.5964 N   0  0  0  0  0  0  0  0  0  0  0  0
   -5.7700    0.9313   -0.2045 C   0  0  0  0  0  0  0  0  0  0  0  0
   -7.2305    1.0962   -0.0099 C   0  0  0  0  0  0  0  0  0  0  0  0
   -8.0617    2.0792   -0.5495 C   0  0  0  0  0  0  0  0  0  0  0  0
   -9.4291    2.0497   -0.2306 C   0  0  0  0  0  0  0  0  0  0  0  0
   -9.9389    1.0463    0.6159 C   0  0  0  0  0  0  0  0  0  0  0  0
   -9.0839    0.0673    1.1478 C   0  0  0  0  0  0  0  0  0  0  0  0
   -7.7285    0.1160    0.8176 C   0  0  0  0  0  0  0  0  0  0  0  0
   -6.6507   -0.8032    1.2554 C   0  0  0  0  0  0  0  0  0  0  0  0
   -0.3604    0.8900   -0.7759 C   0  0  0  0  0  0  0  0  0  0  0  0
    0.7295   -1.0713    0.3787 C   0  0  0  0  0  0  0  0  0  0  0  0
    1.8925   -1.7207   -1.7522 C   0  0  0  0  0  0  0  0  0  0  0  0
    7.3848    2.5666    0.3497 H   0  0  0  0  0  0  0  0  0  0  0  0
    6.1801    2.7387    1.5279 H   0  0  0  0  0  0  0  0  0  0  0  0
    7.8382    2.1060    3.2445 H   0  0  0  0  0  0  0  0  0  0  0  0
    8.9533    1.7101    1.9002 H   0  0  0  0  0  0  0  0  0  0  0  0
    7.6761   -0.2695    2.8497 H   0  0  0  0  0  0  0  0  0  0  0  0
    6.1353    0.4751    2.3085 H   0  0  0  0  0  0  0  0  0  0  0  0
    8.4995   -0.2677    0.4469 H   0  0  0  0  0  0  0  0  0  0  0  0
    6.8954    0.3453   -0.0805 H   0  0  0  0  0  0  0  0  0  0  0  0
    7.1062   -2.1451   -0.3370 H   0  0  0  0  0  0  0  0  0  0  0  0
    7.4305   -2.3018    1.4184 H   0  0  0  0  0  0  0  0  0  0  0  0
    5.1269   -2.1494    1.8271 H   0  0  0  0  0  0  0  0  0  0  0  0
    2.2384    1.2319    0.1159 H   0  0  0  0  0  0  0  0  0  0  0  0
    3.0623    0.8141   -1.4161 H   0  0  0  0  0  0  0  0  0  0  0  0
    1.0262    2.1532   -1.8884 H   0  0  0  0  0  0  0  0  0  0  0  0
   -0.0645    0.5741   -3.5136 H   0  0  0  0  0  0  0  0  0  0  0  0
    1.7167    0.3885   -3.5400 H   0  0  0  0  0  0  0  0  0  0  0  0
    0.5818   -1.8549   -3.4879 H   0  0  0  0  0  0  0  0  0  0  0  0
   -1.4883   -1.1668   -2.3298 H   0  0  0  0  0  0  0  0  0  0  0  0
   -0.7373   -2.5359   -1.4585 H   0  0  0  0  0  0  0  0  0  0  0  0
   -1.5415   -0.4565    1.4060 H   0  0  0  0  0  0  0  0  0  0  0  0
   -2.9726    0.8387    0.1554 H   0  0  0  0  0  0  0  0  0  0  0  0
   -3.1358   -0.4401   -1.1065 H   0  0  0  0  0  0  0  0  0  0  0  0
   -5.5370    0.7505   -1.2754 H   0  0  0  0  0  0  0  0  0  0  0  0
   -5.2257    1.8169    0.1864 H   0  0  0  0  0  0  0  0  0  0  0  0
   -7.6624    2.8472   -1.1991 H   0  0  0  0  0  0  0  0  0  0  0  0
  -10.0934    2.8012   -0.6369 H   0  0  0  0  0  0  0  0  0  0  0  0
  -10.9937    1.0293    0.8577 H   0  0  0  0  0  0  0  0  0  0  0  0
   -9.4682   -0.7071    1.7988 H   0  0  0  0  0  0  0  0  0  0  0  0
   -6.5319   -0.7703    2.3594 H   0  0  0  0  0  0  0  0  0  0  0  0
   -6.8515   -1.8366    0.9005 H   0  0  0  0  0  0  0  0  0  0  0  0
   -1.2265    1.2561   -1.3683 H   0  0  0  0  0  0  0  0  0  0  0  0
   -0.2984    1.5080    0.1469 H   0  0  0  0  0  0  0  0  0  0  0  0
    0.8198   -0.4928    1.3255 H   0  0  0  0  0  0  0  0  0  0  0  0
    0.6265   -2.1423    0.6643 H   0  0  0  0  0  0  0  0  0  0  0  0
    1.7965   -2.7995   -1.4986 H   0  0  0  0  0  0  0  0  0  0  0  0
    2.7948   -1.6112   -2.3889 H   0  0  0  0  0  0  0  0  0  0  0  0
  1  2  1  0
  2  3  1  0
  3  4  1  0
  4  5  1  0
  5  6  1  0
  6  7  1  0
  7  8  2  0
  7  9  1  0
  9 10  1  0
 10 11  1  0
 11 12  1  0
 12 13  1  0
 13 14  1  0
 14 15  1  0
 15 16  1  0
 16 17  1  0
 17 18  1  0
 18 19  1  0
 19 20  2  0
 19 21  1  0
 21 22  1  0
 22 23  1  0
 23 24  2  0
 24 25  1  0
 25 26  2  0
 26 27  1  0
 27 28  2  0
 28 29  1  0
 16 30  1  0
 16 31  1  0
 14 32  1  0
 31 10  1  0
 32 10  1  0
 30 12  1  0
 29 21  1  0
 28 23  1  0
  1 33  1  0
  1 34  1  0
  2 35  1  0
  2 36  1  0
  3 37  1  0
  3 38  1  0
  4 39  1  0
  4 40  1  0
  5 41  1  0
  5 42  1  0
  6 43  1  0
 11 44  1  0
 11 45  1  0
 12 46  1  0
 13 47  1  0
 13 48  1  0
 14 49  1  0
 15 50  1  0
 15 51  1  0
 17 52  1  0
 18 53  1  0
 18 54  1  0
 22 55  1  0
 22 56  1  0
 24 57  1  0
 25 58  1  0
 26 59  1  0
 27 60  1  0
 29 61  1  0
 29 62  1  0
 30 63  1  0
 30 64  1  0
 31 65  1  0
 31 66  1  0
 32 67  1  0
 32 68  1  0
M  END
$$$$
