
     RDKit          3D

 58 61  0  0  0  0  0  0  0  0999 V2000
   -9.0893    0.4721    0.3199 C   0  0  0  0  0  0  0  0  0  0  0  0
   -7.7533    0.0779    0.0266 O   0  0  0  0  0  0  0  0  0  0  0  0
   -6.6308    0.5123    0.7452 C   0  0  0  0  0  0  0  0  0  0  0  0
   -6.7106    1.3971    1.8489 C   0  0  0  0  0  0  0  0  0  0  0  0
   -5.5405    1.7962    2.5333 C   0  0  0  0  0  0  0  0  0  0  0  0
   -4.2799    1.3224    2.1293 C   0  0  0  0  0  0  0  0  0  0  0  0
   -4.2326    0.4567    1.0405 C   0  0  0  0  0  0  0  0  0  0  0  0
   -3.1672   -0.1618    0.4299 C   0  0  0  0  0  0  0  0  0  0  0  0
   -3.7437   -0.9047   -0.5990 C   0  0  0  0  0  0  0  0  0  0  0  0
   -3.0285   -1.7726   -1.5488 C   0  0  0  0  0  0  0  0  0  0  0  0
   -3.6876   -2.6069   -2.2251 O   0  0  0  0  0  0  0  0  0  0  0  0
   -1.6008   -1.7051   -1.7004 N   0  0  0  0  0  0  0  0  0  0  0  0
   -0.9469   -0.4314   -2.0190 C   0  0  0  0  0  0  0  0  0  0  0  0
    0.3836   -0.3300   -1.2689 C   0  0  0  0  0  0  0  0  0  0  0  0
    1.1889   -1.5548   -1.4190 N   0  0  0  0  0  0  0  0  0  0  0  0
    2.5816   -1.5547   -1.0354 C   0  0  0  0  0  0  0  0  0  0  0  0
    3.3675   -2.4018   -1.5436 O   0  0  0  0  0  0  0  0  0  0  0  0
    3.1352   -0.5085   -0.0953 C   0  0  0  0  0  0  0  0  0  0  0  0
    4.3635   -1.0024    0.7009 C   0  0  2  0  0  0  0  0  0  0  0  0
    4.0117   -2.2091    1.4557 N   0  0  0  0  0  0  0  0  0  0  0  0
    4.8991    0.0899    1.6561 C   0  0  0  0  0  0  0  0  0  0  0  0
    5.4642    1.2739    0.9090 C   0  0  0  0  0  0  0  0  0  0  0  0
    4.6988    2.4434    0.7580 C   0  0  0  0  0  0  0  0  0  0  0  0
    5.2076    3.5340    0.0461 C   0  0  0  0  0  0  0  0  0  0  0  0
    4.4603    4.6568   -0.0946 F   0  0  0  0  0  0  0  0  0  0  0  0
    6.4830    3.4655   -0.5224 C   0  0  0  0  0  0  0  0  0  0  0  0
    6.9772    4.5222   -1.2136 F   0  0  0  0  0  0  0  0  0  0  0  0
    7.2497    2.3056   -0.3806 C   0  0  0  0  0  0  0  0  0  0  0  0
    6.7454    1.2111    0.3297 C   0  0  0  0  0  0  0  0  0  0  0  0
    7.5049    0.0930    0.4523 F   0  0  0  0  0  0  0  0  0  0  0  0
    0.6327   -2.7149   -2.1336 C   0  0  0  0  0  0  0  0  0  0  0  0
   -0.8291   -2.9547   -1.7323 C   0  0  0  0  0  0  0  0  0  0  0  0
   -5.0565   -0.7529   -0.6031 O   0  0  0  0  0  0  0  0  0  0  0  0
   -5.3631    0.0647    0.3745 C   0  0  0  0  0  0  0  0  0  0  0  0
   -9.7778   -0.0158   -0.4001 H   0  0  0  0  0  0  0  0  0  0  0  0
   -9.3642    0.1535    1.3475 H   0  0  0  0  0  0  0  0  0  0  0  0
   -9.1926    1.5734    0.2212 H   0  0  0  0  0  0  0  0  0  0  0  0
   -7.6644    1.7797    2.1854 H   0  0  0  0  0  0  0  0  0  0  0  0
   -5.6147    2.4718    3.3755 H   0  0  0  0  0  0  0  0  0  0  0  0
   -3.3782    1.6219    2.6479 H   0  0  0  0  0  0  0  0  0  0  0  0
   -2.1235   -0.0969    0.7052 H   0  0  0  0  0  0  0  0  0  0  0  0
   -1.5892    0.4346   -1.7526 H   0  0  0  0  0  0  0  0  0  0  0  0
   -0.7603   -0.3840   -3.1138 H   0  0  0  0  0  0  0  0  0  0  0  0
    0.9465    0.5434   -1.6640 H   0  0  0  0  0  0  0  0  0  0  0  0
    0.1735   -0.1604   -0.1919 H   0  0  0  0  0  0  0  0  0  0  0  0
    2.3507   -0.2001    0.6272 H   0  0  0  0  0  0  0  0  0  0  0  0
    3.4121    0.3768   -0.7051 H   0  0  0  0  0  0  0  0  0  0  0  0
    5.1703   -1.2649   -0.0201 H   0  0  0  0  0  0  0  0  0  0  0  0
    4.8764   -2.5914    1.9034 H   0  0  0  0  0  0  0  0  0  0  0  0
    3.3449   -1.9577    2.2221 H   0  0  0  0  0  0  0  0  0  0  0  0
    4.0896    0.4182    2.3450 H   0  0  0  0  0  0  0  0  0  0  0  0
    5.6999   -0.3401    2.2965 H   0  0  0  0  0  0  0  0  0  0  0  0
    3.7059    2.5069    1.1860 H   0  0  0  0  0  0  0  0  0  0  0  0
    8.2361    2.2536   -0.8233 H   0  0  0  0  0  0  0  0  0  0  0  0
    1.2105   -3.6371   -1.9058 H   0  0  0  0  0  0  0  0  0  0  0  0
    0.6942   -2.5305   -3.2280 H   0  0  0  0  0  0  0  0  0  0  0  0
   -0.8569   -3.4176   -0.7222 H   0  0  0  0  0  0  0  0  0  0  0  0
   -1.2836   -3.6658   -2.4557 H   0  0  0  0  0  0  0  0  0  0  0  0
  1  2  1  0
  2  3  1  0
  3  4  2  0
  4  5  1  0
  5  6  2  0
  6  7  1  0
  7  8  1  0
  8  9  2  0
  9 10  1  0
 10 11  2  0
 10 12  1  0
 12 13  1  0
 13 14  1  0
 14 15  1  0
 15 16  1  0
 16 17  2  0
 16 18  1  0
 18 19  1  0
 19 20  1  0
 19 21  1  0
 21 22  1  0
 22 23  2  0
 23 24  1  0
 24 25  1  0
 24 26  2  0
 26 27  1  0
 26 28  1  0
 28 29  2  0
 29 30  1  0
 15 31  1  0
 31 32  1  0
  9 33  1  0
 33 34  1  0
 34  3  1  0
 34  7  2  0
 32 12  1  0
 29 22  1  0
  1 35  1  0
  1 36  1  0
  1 37  1  0
  4 38  1  0
  5 39  1  0
  6 40  1  0
  8 41  1  0
 13 42  1  0
 13 43  1  0
 14 44  1  0
 14 45  1  0
 18 46  1  0
 18 47  1  0
 19 48  1  6
 20 49  1  0
 20 50  1  0
 21 51  1  0
 21 52  1  0
 23 53  1  0
 28 54  1  0
 31 55  1  0
 31 56  1  0
 32 57  1  0
 32 58  1  0
M  END
$$$$
