
     RDKit          3D

 57 61  0  0  0  0  0  0  0  0999 V2000
   -4.8005    2.7129   -1.4302 C   0  0  0  0  0  0  0  0  0  0  0  0
   -3.6257    1.8435   -1.4734 C   0  0  0  0  0  0  0  0  0  0  0  0
   -2.6620    1.1206   -1.5006 C   0  0  0  0  0  0  0  0  0  0  0  0
   -1.4976    0.2292   -1.5172 C   0  0  0  0  0  0  0  0  0  0  0  0
   -0.7676    0.3267   -0.2395 N   0  0  0  0  0  0  0  0  0  0  0  0
   -1.2242   -0.3667    0.8703 C   0  0  0  0  0  0  0  0  0  0  0  0
   -2.4053   -1.1746    0.7927 N   0  0  0  0  0  0  0  0  0  0  0  0
   -2.2587   -2.6202    0.6041 C   0  0  0  0  0  0  0  0  0  0  0  0
   -3.4691   -3.1817   -0.1486 C   0  0  0  0  0  0  0  0  0  0  0  0
   -4.7801   -2.7495    0.5191 C   0  0  0  0  0  0  0  0  0  0  0  0
   -4.8606   -1.2176    0.6208 C   0  0  1  0  0  0  0  0  0  0  0  0
   -6.1140   -0.8228    1.2658 N   0  0  0  0  0  0  0  0  0  0  0  0
   -3.6440   -0.6651    1.3865 C   0  0  0  0  0  0  0  0  0  0  0  0
   -0.5713   -0.2742    2.0666 N   0  0  0  0  0  0  0  0  0  0  0  0
    0.5220    0.5122    2.1532 C   0  0  0  0  0  0  0  0  0  0  0  0
    1.3346    0.7411    3.2381 C   0  0  0  0  0  0  0  0  0  0  0  0
    2.3062    1.6193    2.7675 C   0  0  0  0  0  0  0  0  0  0  0  0
    2.0908    1.9207    1.4617 N   0  0  0  0  0  0  0  0  0  0  0  0
    2.9516    2.7648    0.6309 C   0  0  0  0  0  0  0  0  0  0  0  0
    3.8133    1.9156   -0.2589 C   0  0  0  0  0  0  0  0  0  0  0  0
    3.9420    2.1984   -1.6275 C   0  0  0  0  0  0  0  0  0  0  0  0
    4.7405    1.4190   -2.4038 N   0  0  0  0  0  0  0  0  0  0  0  0
    5.4260    0.3708   -1.8770 C   0  0  0  0  0  0  0  0  0  0  0  0
    6.2442   -0.4266   -2.6848 C   0  0  0  0  0  0  0  0  0  0  0  0
    6.9440   -1.4999   -2.1218 C   0  0  0  0  0  0  0  0  0  0  0  0
    6.8280   -1.7767   -0.7543 C   0  0  0  0  0  0  0  0  0  0  0  0
    6.0114   -0.9821    0.0581 C   0  0  0  0  0  0  0  0  0  0  0  0
    5.3091    0.0914   -0.5000 C   0  0  0  0  0  0  0  0  0  0  0  0
    4.5101    0.8734    0.2717 N   0  0  0  0  0  0  0  0  0  0  0  0
    0.9915    1.2238    1.0975 C   0  0  0  0  0  0  0  0  0  0  0  0
    0.3384    1.1447   -0.1331 C   0  0  0  0  0  0  0  0  0  0  0  0
    0.7503    1.8126   -1.1203 O   0  0  0  0  0  0  0  0  0  0  0  0
   -4.5047    3.7166   -1.0614 H   0  0  0  0  0  0  0  0  0  0  0  0
   -5.2312    2.8042   -2.4484 H   0  0  0  0  0  0  0  0  0  0  0  0
   -5.5569    2.2757   -0.7461 H   0  0  0  0  0  0  0  0  0  0  0  0
   -1.8383   -0.8121   -1.6954 H   0  0  0  0  0  0  0  0  0  0  0  0
   -0.8514    0.4936   -2.3807 H   0  0  0  0  0  0  0  0  0  0  0  0
   -2.1696   -3.1138    1.5963 H   0  0  0  0  0  0  0  0  0  0  0  0
   -1.3384   -2.8424    0.0202 H   0  0  0  0  0  0  0  0  0  0  0  0
   -3.4106   -4.2912   -0.1665 H   0  0  0  0  0  0  0  0  0  0  0  0
   -3.4514   -2.8190   -1.1997 H   0  0  0  0  0  0  0  0  0  0  0  0
   -5.6353   -3.1263   -0.0829 H   0  0  0  0  0  0  0  0  0  0  0  0
   -4.8460   -3.2032    1.5329 H   0  0  0  0  0  0  0  0  0  0  0  0
   -4.8500   -0.7983   -0.4105 H   0  0  0  0  0  0  0  0  0  0  0  0
   -6.1784    0.2214    1.2573 H   0  0  0  0  0  0  0  0  0  0  0  0
   -6.1009   -1.1262    2.2672 H   0  0  0  0  0  0  0  0  0  0  0  0
   -3.6617    0.4464    1.3421 H   0  0  0  0  0  0  0  0  0  0  0  0
   -3.6874   -0.9711    2.4548 H   0  0  0  0  0  0  0  0  0  0  0  0
    1.2466    0.3234    4.2321 H   0  0  0  0  0  0  0  0  0  0  0  0
    3.1312    2.0053    3.3524 H   0  0  0  0  0  0  0  0  0  0  0  0
    3.6117    3.3840    1.2759 H   0  0  0  0  0  0  0  0  0  0  0  0
    2.3253    3.4674    0.0404 H   0  0  0  0  0  0  0  0  0  0  0  0
    3.4104    3.0282   -2.0750 H   0  0  0  0  0  0  0  0  0  0  0  0
    6.3392   -0.2179   -3.7432 H   0  0  0  0  0  0  0  0  0  0  0  0
    7.5771   -2.1176   -2.7455 H   0  0  0  0  0  0  0  0  0  0  0  0
    7.3716   -2.6079   -0.3241 H   0  0  0  0  0  0  0  0  0  0  0  0
    5.9258   -1.2021    1.1150 H   0  0  0  0  0  0  0  0  0  0  0  0
  1  2  1  0
  2  3  3  0
  3  4  1  0
  4  5  1  0
  5  6  1  0
  6  7  1  0
  7  8  1  0
  8  9  1  0
  9 10  1  0
 10 11  1  0
 11 12  1  0
 11 13  1  0
  6 14  2  0
 14 15  1  0
 15 16  1  0
 16 17  2  0
 17 18  1  0
 18 19  1  0
 19 20  1  0
 20 21  2  0
 21 22  1  0
 22 23  2  0
 23 24  1  0
 24 25  2  0
 25 26  1  0
 26 27  2  0
 27 28  1  0
 28 29  2  0
 18 30  1  0
 30 31  1  0
 31 32  2  0
 31  5  1  0
 13  7  1  0
 30 15  2  0
 29 20  1  0
 28 23  1  0
  1 33  1  0
  1 34  1  0
  1 35  1  0
  4 36  1  0
  4 37  1  0
  8 38  1  0
  8 39  1  0
  9 40  1  0
  9 41  1  0
 10 42  1  0
 10 43  1  0
 11 44  1  6
 12 45  1  0
 12 46  1  0
 13 47  1  0
 13 48  1  0
 16 49  1  0
 17 50  1  0
 19 51  1  0
 19 52  1  0
 21 53  1  0
 24 54  1  0
 25 55  1  0
 26 56  1  0
 27 57  1  0
M  END
$$$$
