
     RDKit          3D

 65 69  0  0  0  0  0  0  0  0999 V2000
   -0.4842    1.1366   -1.3675 O   0  0  0  0  0  0  0  0  0  0  0  0
   -0.5173    1.2124   -0.1084 C   0  0  0  0  0  0  0  0  0  0  0  0
    0.1147    0.1072    0.7085 C   0  0  2  0  0  0  0  0  0  0  0  0
    1.6434    0.1970    0.6683 C   0  0  0  0  0  0  0  0  0  0  0  0
    2.1308   -1.2455    0.5069 C   0  0  2  0  0  0  0  0  0  0  0  0
    3.3303   -1.3252   -0.3305 N   0  0  0  0  0  0  0  0  0  0  0  0
    4.5379   -1.7786    0.0456 C   0  0  0  0  0  0  0  0  0  0  0  0
    5.3587   -1.6560   -1.0605 C   0  0  0  0  0  0  0  0  0  0  0  0
    6.7915   -2.0173   -1.1726 C   0  0  0  0  0  0  0  0  0  0  0  0
    7.4948   -2.5606   -0.0804 C   0  0  0  0  0  0  0  0  0  0  0  0
    8.8468   -2.8956   -0.2046 C   0  0  0  0  0  0  0  0  0  0  0  0
    9.5122   -2.6933   -1.4166 C   0  0  0  0  0  0  0  0  0  0  0  0
   11.3588   -3.1521   -1.5822 Br  0  0  0  0  0  0  0  0  0  0  0  0
    8.8243   -2.1549   -2.5070 C   0  0  0  0  0  0  0  0  0  0  0  0
    7.4725   -1.8184   -2.3877 C   0  0  0  0  0  0  0  0  0  0  0  0
    4.6251   -1.1327   -2.0662 N   0  0  0  0  0  0  0  0  0  0  0  0
    3.4014   -0.9414   -1.5958 N   0  0  0  0  0  0  0  0  0  0  0  0
    0.9598   -2.0164   -0.1009 C   0  0  0  0  0  0  0  0  0  0  0  0
   -0.2179   -1.2074    0.1659 N   0  0  0  0  0  0  0  0  0  0  0  0
   -1.5557   -1.7247    0.0140 C   0  0  0  0  0  0  0  0  0  0  0  0
   -1.7257   -2.8390   -0.5532 O   0  0  0  0  0  0  0  0  0  0  0  0
   -2.7557   -0.9224    0.4536 C   0  0  0  0  0  0  0  0  0  0  0  0
   -3.9913   -1.7964    0.7199 C   0  0  0  0  0  0  0  0  0  0  0  0
   -5.1594   -0.9836    1.2980 C   0  0  0  0  0  0  0  0  0  0  0  0
   -5.6832    0.0299    0.3121 C   0  0  0  0  0  0  0  0  0  0  0  0
   -6.5452   -0.3714   -0.7220 C   0  0  0  0  0  0  0  0  0  0  0  0
   -7.0053    0.5607   -1.6572 C   0  0  0  0  0  0  0  0  0  0  0  0
   -6.6042    1.8965   -1.5705 C   0  0  0  0  0  0  0  0  0  0  0  0
   -5.7409    2.3024   -0.5494 C   0  0  0  0  0  0  0  0  0  0  0  0
   -5.2783    1.3739    0.3884 C   0  0  0  0  0  0  0  0  0  0  0  0
   -1.1358    2.3520    0.5156 N   0  0  0  0  0  0  0  0  0  0  0  0
   -1.1109    2.6254    1.9424 C   0  0  0  0  0  0  0  0  0  0  0  0
   -1.6913    4.0237    2.1021 C   0  0  0  0  0  0  0  0  0  0  0  0
   -2.4251    4.3227    0.7980 C   0  0  0  0  0  0  0  0  0  0  0  0
   -1.8357    3.3762   -0.2395 C   0  0  0  0  0  0  0  0  0  0  0  0
   -0.2213    0.1415    1.7658 H   0  0  0  0  0  0  0  0  0  0  0  0
    1.9864    0.8178   -0.1897 H   0  0  0  0  0  0  0  0  0  0  0  0
    2.0404    0.6475    1.6042 H   0  0  0  0  0  0  0  0  0  0  0  0
    2.3432   -1.6615    1.5186 H   0  0  0  0  0  0  0  0  0  0  0  0
    4.7837   -2.1558    1.0291 H   0  0  0  0  0  0  0  0  0  0  0  0
    7.0077   -2.7289    0.8701 H   0  0  0  0  0  0  0  0  0  0  0  0
    9.3763   -3.3125    0.6425 H   0  0  0  0  0  0  0  0  0  0  0  0
    9.3358   -1.9966   -3.4478 H   0  0  0  0  0  0  0  0  0  0  0  0
    6.9609   -1.4027   -3.2468 H   0  0  0  0  0  0  0  0  0  0  0  0
    1.0701   -2.1479   -1.1990 H   0  0  0  0  0  0  0  0  0  0  0  0
    0.8657   -3.0127    0.3840 H   0  0  0  0  0  0  0  0  0  0  0  0
   -2.5096   -0.3718    1.3853 H   0  0  0  0  0  0  0  0  0  0  0  0
   -2.9876   -0.1853   -0.3435 H   0  0  0  0  0  0  0  0  0  0  0  0
   -3.7234   -2.5897    1.4519 H   0  0  0  0  0  0  0  0  0  0  0  0
   -4.3145   -2.2932   -0.2214 H   0  0  0  0  0  0  0  0  0  0  0  0
   -4.8404   -0.4840    2.2391 H   0  0  0  0  0  0  0  0  0  0  0  0
   -5.9799   -1.6823    1.5714 H   0  0  0  0  0  0  0  0  0  0  0  0
   -6.8570   -1.4053   -0.8046 H   0  0  0  0  0  0  0  0  0  0  0  0
   -7.6705    0.2466   -2.4512 H   0  0  0  0  0  0  0  0  0  0  0  0
   -6.9599    2.6164   -2.2962 H   0  0  0  0  0  0  0  0  0  0  0  0
   -5.4284    3.3364   -0.4880 H   0  0  0  0  0  0  0  0  0  0  0  0
   -4.5995    1.6995    1.1672 H   0  0  0  0  0  0  0  0  0  0  0  0
   -1.7432    1.8833    2.4762 H   0  0  0  0  0  0  0  0  0  0  0  0
   -0.0688    2.5911    2.3281 H   0  0  0  0  0  0  0  0  0  0  0  0
   -0.8659    4.7567    2.2386 H   0  0  0  0  0  0  0  0  0  0  0  0
   -2.3777    4.0802    2.9747 H   0  0  0  0  0  0  0  0  0  0  0  0
   -2.2967    5.3849    0.4963 H   0  0  0  0  0  0  0  0  0  0  0  0
   -3.5082    4.1100    0.9280 H   0  0  0  0  0  0  0  0  0  0  0  0
   -2.6409    2.9202   -0.8558 H   0  0  0  0  0  0  0  0  0  0  0  0
   -1.1162    3.9145   -0.8939 H   0  0  0  0  0  0  0  0  0  0  0  0
  1  2  2  0
  2  3  1  0
  3  4  1  0
  4  5  1  0
  5  6  1  0
  6  7  1  0
  7  8  2  0
  8  9  1  0
  9 10  2  0
 10 11  1  0
 11 12  2  0
 12 13  1  0
 12 14  1  0
 14 15  2  0
  8 16  1  0
 16 17  2  0
  5 18  1  0
 18 19  1  0
 19 20  1  0
 20 21  2  0
 20 22  1  0
 22 23  1  0
 23 24  1  0
 24 25  1  0
 25 26  2  0
 26 27  1  0
 27 28  2  0
 28 29  1  0
 29 30  2  0
  2 31  1  0
 31 32  1  0
 32 33  1  0
 33 34  1  0
 34 35  1  0
 19  3  1  0
 30 25  1  0
 35 31  1  0
 17  6  1  0
 15  9  1  0
  3 36  1  1
  4 37  1  0
  4 38  1  0
  5 39  1  1
  7 40  1  0
 10 41  1  0
 11 42  1  0
 14 43  1  0
 15 44  1  0
 18 45  1  0
 18 46  1  0
 22 47  1  0
 22 48  1  0
 23 49  1  0
 23 50  1  0
 24 51  1  0
 24 52  1  0
 26 53  1  0
 27 54  1  0
 28 55  1  0
 29 56  1  0
 30 57  1  0
 32 58  1  0
 32 59  1  0
 33 60  1  0
 33 61  1  0
 34 62  1  0
 34 63  1  0
 35 64  1  0
 35 65  1  0
M  END
$$$$
