
     RDKit          3D

 62 65  0  0  0  0  0  0  0  0999 V2000
   -1.9374    4.2176    0.2847 C   0  0  0  0  0  0  0  0  0  0  0  0
   -2.0902    3.1635   -0.7193 N   0  0  0  0  0  0  0  0  0  0  0  0
   -3.1632    3.2784   -1.7060 C   0  0  0  0  0  0  0  0  0  0  0  0
   -0.9857    2.2904   -1.0041 C   0  0  0  0  0  0  0  0  0  0  0  0
   -0.2731    2.5202   -2.0190 O   0  0  0  0  0  0  0  0  0  0  0  0
   -0.6836    1.0697   -0.1462 C   0  0  1  0  0  0  0  0  0  0  0  0
    0.0685    1.4766    1.1780 C   0  0  1  0  0  0  0  0  0  0  0  0
    0.4865    0.2784    2.0892 C   0  0  0  0  0  0  0  0  0  0  0  0
    1.9860   -0.0831    2.0395 C   0  0  0  0  0  0  0  0  0  0  0  0
    2.5775    0.1393    0.6379 C   0  0  2  0  0  0  0  0  0  0  0  0
    4.0194   -0.3311    0.5668 C   0  0  0  0  0  0  0  0  0  0  0  0
    5.0164    0.2213    1.4014 C   0  0  0  0  0  0  0  0  0  0  0  0
    6.3439   -0.2381    1.3043 C   0  0  0  0  0  0  0  0  0  0  0  0
    6.6829   -1.2393    0.3824 C   0  0  0  0  0  0  0  0  0  0  0  0
    5.6643   -1.7462   -0.4179 C   0  0  0  0  0  0  0  0  0  0  0  0
    5.7858   -2.6999   -1.3582 N   0  0  0  0  0  0  0  0  0  0  0  0
    4.5097   -2.7939   -1.8121 C   0  0  0  0  0  0  0  0  0  0  0  0
    3.6603   -1.9470   -1.1853 N   0  0  0  0  0  0  0  0  0  0  0  0
    4.4076   -1.2985   -0.3128 N   0  0  0  0  0  0  0  0  0  0  0  0
    2.4407    1.6156    0.1845 C   0  0  0  0  0  0  0  0  0  0  0  0
    1.3059    2.3702    0.9047 C   0  0  0  0  0  0  0  0  0  0  0  0
   -1.9978    0.2084    0.0173 C   0  0  2  0  0  0  0  0  0  0  0  0
   -2.7552    0.5330    1.2303 N   0  0  0  0  0  0  0  0  0  0  0  0
   -1.7964   -1.2963   -0.0894 C   0  0  0  0  0  0  0  0  0  0  0  0
   -0.6333   -1.7774   -0.1775 O   0  0  0  0  0  0  0  0  0  0  0  0
   -2.9232   -2.1937   -0.1415 N   0  0  0  0  0  0  0  0  0  0  0  0
   -2.7690   -3.6384   -0.1913 C   0  0  0  0  0  0  0  0  0  0  0  0
   -4.1481   -4.1922   -0.5239 C   0  0  0  0  0  0  0  0  0  0  0  0
   -5.1308   -3.0597   -0.2382 C   0  0  2  0  0  0  0  0  0  0  0  0
   -6.1416   -3.0280   -1.1843 F   0  0  0  0  0  0  0  0  0  0  0  0
   -4.3109   -1.7757   -0.2692 C   0  0  0  0  0  0  0  0  0  0  0  0
   -2.7141    5.0023    0.1585 H   0  0  0  0  0  0  0  0  0  0  0  0
   -2.0466    3.7965    1.3027 H   0  0  0  0  0  0  0  0  0  0  0  0
   -0.9432    4.7015    0.1854 H   0  0  0  0  0  0  0  0  0  0  0  0
   -4.1301    3.4666   -1.1931 H   0  0  0  0  0  0  0  0  0  0  0  0
   -3.2605    2.3404   -2.2934 H   0  0  0  0  0  0  0  0  0  0  0  0
   -2.9452    4.1172   -2.4003 H   0  0  0  0  0  0  0  0  0  0  0  0
    0.0253    0.4699   -0.7516 H   0  0  0  0  0  0  0  0  0  0  0  0
   -0.6299    2.0958    1.7761 H   0  0  0  0  0  0  0  0  0  0  0  0
    0.2433    0.5352    3.1440 H   0  0  0  0  0  0  0  0  0  0  0  0
   -0.1011   -0.6283    1.8742 H   0  0  0  0  0  0  0  0  0  0  0  0
    2.1149   -1.1464    2.3398 H   0  0  0  0  0  0  0  0  0  0  0  0
    2.5308    0.5410    2.7812 H   0  0  0  0  0  0  0  0  0  0  0  0
    1.9749   -0.4837   -0.0556 H   0  0  0  0  0  0  0  0  0  0  0  0
    4.7759    1.0000    2.1135 H   0  0  0  0  0  0  0  0  0  0  0  0
    7.1079    0.1851    1.9433 H   0  0  0  0  0  0  0  0  0  0  0  0
    7.6994   -1.6010    0.2965 H   0  0  0  0  0  0  0  0  0  0  0  0
    4.2033   -3.4753   -2.5942 H   0  0  0  0  0  0  0  0  0  0  0  0
    2.2584    1.6379   -0.9120 H   0  0  0  0  0  0  0  0  0  0  0  0
    3.3832    2.1788    0.3593 H   0  0  0  0  0  0  0  0  0  0  0  0
    1.6911    2.7422    1.8803 H   0  0  0  0  0  0  0  0  0  0  0  0
    1.0375    3.2766    0.3248 H   0  0  0  0  0  0  0  0  0  0  0  0
   -2.6587    0.4424   -0.8452 H   0  0  0  0  0  0  0  0  0  0  0  0
   -2.2283    0.2534    2.0863 H   0  0  0  0  0  0  0  0  0  0  0  0
   -2.9394    1.5595    1.2694 H   0  0  0  0  0  0  0  0  0  0  0  0
   -2.4253   -4.0092    0.7985 H   0  0  0  0  0  0  0  0  0  0  0  0
   -2.0378   -3.9272   -0.9776 H   0  0  0  0  0  0  0  0  0  0  0  0
   -4.3803   -5.0918    0.0865 H   0  0  0  0  0  0  0  0  0  0  0  0
   -4.1881   -4.4636   -1.6021 H   0  0  0  0  0  0  0  0  0  0  0  0
   -5.5746   -3.1985    0.7724 H   0  0  0  0  0  0  0  0  0  0  0  0
   -4.4516   -1.2405   -1.2333 H   0  0  0  0  0  0  0  0  0  0  0  0
   -4.6071   -1.1208    0.5764 H   0  0  0  0  0  0  0  0  0  0  0  0
  1  2  1  0
  2  3  1  0
  2  4  1  0
  4  5  2  0
  4  6  1  0
  6  7  1  0
  7  8  1  0
  8  9  1  0
  9 10  1  0
 10 11  1  0
 11 12  2  0
 12 13  1  0
 13 14  2  0
 14 15  1  0
 15 16  2  0
 16 17  1  0
 17 18  2  0
 18 19  1  0
 10 20  1  0
 20 21  1  0
  6 22  1  0
 22 23  1  0
 22 24  1  0
 24 25  2  0
 24 26  1  0
 26 27  1  0
 27 28  1  0
 28 29  1  0
 29 30  1  0
 29 31  1  0
 21  7  1  0
 31 26  1  0
 19 11  1  0
 19 15  1  0
  1 32  1  0
  1 33  1  0
  1 34  1  0
  3 35  1  0
  3 36  1  0
  3 37  1  0
  6 38  1  6
  7 39  1  1
  8 40  1  0
  8 41  1  0
  9 42  1  0
  9 43  1  0
 10 44  1  6
 12 45  1  0
 13 46  1  0
 14 47  1  0
 17 48  1  0
 20 49  1  0
 20 50  1  0
 21 51  1  0
 21 52  1  0
 22 53  1  6
 23 54  1  0
 23 55  1  0
 27 56  1  0
 27 57  1  0
 28 58  1  0
 28 59  1  0
 29 60  1  1
 31 61  1  0
 31 62  1  0
M  END
$$$$
