
     RDKit          3D

 55 59  0  0  0  0  0  0  0  0999 V2000
    5.5488   -3.1174    0.1111 C   0  0  0  0  0  0  0  0  0  0  0  0
    5.0846   -1.9181   -0.5739 N   0  0  0  0  0  0  0  0  0  0  0  0
    5.8404   -0.7247   -0.7716 C   0  0  0  0  0  0  0  0  0  0  0  0
    7.0979   -0.6820   -0.7164 O   0  0  0  0  0  0  0  0  0  0  0  0
    4.9624    0.4647   -1.0164 C   0  0  0  0  0  0  0  0  0  0  0  0
    3.6349   -0.1241   -0.8797 N   0  0  0  0  0  0  0  0  0  0  0  0
    3.7451   -1.4544   -0.6178 C   0  0  0  0  0  0  0  0  0  0  0  0
    2.6461   -2.2366   -0.4058 N   0  0  0  0  0  0  0  0  0  0  0  0
    1.4341   -1.6261   -0.4761 C   0  0  0  0  0  0  0  0  0  0  0  0
    0.2381   -2.2147   -0.3079 N   0  0  0  0  0  0  0  0  0  0  0  0
   -0.6243   -1.1756   -0.4762 C   0  0  0  0  0  0  0  0  0  0  0  0
   -2.0455   -1.3403   -0.3752 N   0  0  0  0  0  0  0  0  0  0  0  0
   -2.7202   -2.3145   -1.2388 C   0  0  0  0  0  0  0  0  0  0  0  0
   -3.4222   -3.3827   -0.3896 C   0  0  0  0  0  0  0  0  0  0  0  0
   -4.1961   -2.8030    0.8187 C   0  0  0  0  0  0  0  0  0  0  0  0
   -4.2038   -1.2636    0.8598 C   0  0  1  0  0  0  0  0  0  0  0  0
   -4.8517   -0.7951    2.0866 N   0  0  0  0  0  0  0  0  0  0  0  0
   -2.7658   -0.7179    0.7451 C   0  0  0  0  0  0  0  0  0  0  0  0
   -0.0148    0.0131   -0.7479 N   0  0  0  0  0  0  0  0  0  0  0  0
   -0.6386    1.3024   -1.0647 C   0  0  0  0  0  0  0  0  0  0  0  0
   -0.4725    2.3180    0.0559 C   0  0  0  0  0  0  0  0  0  0  0  0
   -0.3292    1.8717    1.3872 C   0  0  0  0  0  0  0  0  0  0  0  0
   -0.1830    2.7780    2.4361 C   0  0  0  0  0  0  0  0  0  0  0  0
   -0.0320    2.3263    3.7056 F   0  0  0  0  0  0  0  0  0  0  0  0
   -0.1880    4.1455    2.1816 C   0  0  0  0  0  0  0  0  0  0  0  0
   -0.3584    4.6147    0.8800 C   0  0  0  0  0  0  0  0  0  0  0  0
   -0.5303    3.7200   -0.1967 C   0  0  0  0  0  0  0  0  0  0  0  0
   -0.7279    4.2757   -1.5959 C   0  0  0  0  0  0  0  0  0  0  0  0
   -0.9773    5.6376   -1.5756 F   0  0  0  0  0  0  0  0  0  0  0  0
    0.4127    4.0559   -2.3462 F   0  0  0  0  0  0  0  0  0  0  0  0
   -1.8066    3.6623   -2.2074 F   0  0  0  0  0  0  0  0  0  0  0  0
    1.2945   -0.2935   -0.7414 C   0  0  0  0  0  0  0  0  0  0  0  0
    2.4244    0.5025   -0.9524 C   0  0  0  0  0  0  0  0  0  0  0  0
    2.3420    1.7369   -1.1906 O   0  0  0  0  0  0  0  0  0  0  0  0
    6.5727   -3.3759   -0.2312 H   0  0  0  0  0  0  0  0  0  0  0  0
    4.8731   -3.9683   -0.1165 H   0  0  0  0  0  0  0  0  0  0  0  0
    5.5609   -2.9404    1.2069 H   0  0  0  0  0  0  0  0  0  0  0  0
    5.1109    0.8624   -2.0427 H   0  0  0  0  0  0  0  0  0  0  0  0
    5.1269    1.2435   -0.2416 H   0  0  0  0  0  0  0  0  0  0  0  0
   -3.4711   -1.7845   -1.8637 H   0  0  0  0  0  0  0  0  0  0  0  0
   -1.9998   -2.8033   -1.9315 H   0  0  0  0  0  0  0  0  0  0  0  0
   -4.1187   -3.9545   -1.0406 H   0  0  0  0  0  0  0  0  0  0  0  0
   -2.6565   -4.0991   -0.0188 H   0  0  0  0  0  0  0  0  0  0  0  0
   -3.7367   -3.1888    1.7559 H   0  0  0  0  0  0  0  0  0  0  0  0
   -5.2458   -3.1693    0.7942 H   0  0  0  0  0  0  0  0  0  0  0  0
   -4.7960   -0.8935   -0.0072 H   0  0  0  0  0  0  0  0  0  0  0  0
   -4.8987    0.2496    2.0602 H   0  0  0  0  0  0  0  0  0  0  0  0
   -4.2671   -1.0588    2.9134 H   0  0  0  0  0  0  0  0  0  0  0  0
   -2.8068    0.3817    0.6078 H   0  0  0  0  0  0  0  0  0  0  0  0
   -2.2162   -0.9305    1.6885 H   0  0  0  0  0  0  0  0  0  0  0  0
   -0.1827    1.6738   -2.0042 H   0  0  0  0  0  0  0  0  0  0  0  0
   -1.7191    1.1654   -1.2752 H   0  0  0  0  0  0  0  0  0  0  0  0
   -0.3214    0.8167    1.6240 H   0  0  0  0  0  0  0  0  0  0  0  0
   -0.0657    4.8476    2.9964 H   0  0  0  0  0  0  0  0  0  0  0  0
   -0.3599    5.6854    0.7226 H   0  0  0  0  0  0  0  0  0  0  0  0
  1  2  1  0
  2  3  1  0
  3  4  2  0
  3  5  1  0
  5  6  1  0
  6  7  1  0
  7  8  2  0
  8  9  1  0
  9 10  1  0
 10 11  2  0
 11 12  1  0
 12 13  1  0
 13 14  1  0
 14 15  1  0
 15 16  1  0
 16 17  1  0
 16 18  1  0
 11 19  1  0
 19 20  1  0
 20 21  1  0
 21 22  2  0
 22 23  1  0
 23 24  1  0
 23 25  2  0
 25 26  1  0
 26 27  2  0
 27 28  1  0
 28 29  1  0
 28 30  1  0
 28 31  1  0
 19 32  1  0
 32 33  1  0
 33 34  2  0
  7  2  1  0
 32  9  2  0
 33  6  1  0
 18 12  1  0
 27 21  1  0
  1 35  1  0
  1 36  1  0
  1 37  1  0
  5 38  1  0
  5 39  1  0
 13 40  1  0
 13 41  1  0
 14 42  1  0
 14 43  1  0
 15 44  1  0
 15 45  1  0
 16 46  1  6
 17 47  1  0
 17 48  1  0
 18 49  1  0
 18 50  1  0
 20 51  1  0
 20 52  1  0
 22 53  1  0
 25 54  1  0
 26 55  1  0
M  END
$$$$
