
     RDKit          3D

 44 45  0  0  0  0  0  0  0  0999 V2000
   -0.9314   -1.1410   -0.7928 C   0  0  0  0  0  0  0  0  0  0  0  0
   -1.5290    0.0811   -0.0428 C   0  0  0  0  0  0  0  0  0  0  0  0
   -0.5705    0.4371    1.1553 C   0  0  2  0  0  0  0  0  0  0  0  0
   -1.1599    1.4447    2.0481 N   0  0  0  0  0  0  0  0  0  0  0  0
    0.8236    0.8657    0.7099 C   0  0  0  0  0  0  0  0  0  0  0  0
    1.0045    2.0481    0.3089 O   0  0  0  0  0  0  0  0  0  0  0  0
    1.9365   -0.0548    0.7028 N   0  0  0  0  0  0  0  0  0  0  0  0
    2.0003   -1.2496    1.5313 C   0  0  0  0  0  0  0  0  0  0  0  0
    3.4659   -1.6611    1.5614 C   0  0  0  0  0  0  0  0  0  0  0  0
    4.1248   -0.9449    0.3883 C   0  0  0  0  0  0  0  0  0  0  0  0
    3.2181    0.2484    0.0747 C   0  0  1  0  0  0  0  0  0  0  0  0
    3.0613    0.4903   -1.5064 B   0  0  0  0  0  0  0  0  0  0  0  0
    2.4696   -0.5393   -2.3584 O   0  0  0  0  0  0  0  0  0  0  0  0
    3.4646    1.7673   -2.0891 O   0  0  0  0  0  0  0  0  0  0  0  0
   -1.6899    1.2813   -1.0477 C   0  0  0  0  0  0  0  0  0  0  0  0
   -3.1367    1.5442   -1.5041 C   0  0  0  0  0  0  0  0  0  0  0  0
   -3.8838    0.2414   -1.7887 C   0  0  0  0  0  0  0  0  0  0  0  0
   -3.9633   -0.6694   -0.5481 C   0  0  0  0  0  0  0  0  0  0  0  0
   -2.9173   -0.3346    0.5351 C   0  0  0  0  0  0  0  0  0  0  0  0
    0.0797   -0.9127   -1.1855 H   0  0  0  0  0  0  0  0  0  0  0  0
   -0.8514   -2.0189   -0.1166 H   0  0  0  0  0  0  0  0  0  0  0  0
   -1.5531   -1.4356   -1.6616 H   0  0  0  0  0  0  0  0  0  0  0  0
   -0.4749   -0.4875    1.7626 H   0  0  0  0  0  0  0  0  0  0  0  0
   -0.5635    1.5204    2.9045 H   0  0  0  0  0  0  0  0  0  0  0  0
   -1.1658    2.3862    1.5965 H   0  0  0  0  0  0  0  0  0  0  0  0
    1.6511   -1.0308    2.5640 H   0  0  0  0  0  0  0  0  0  0  0  0
    1.3801   -2.0522    1.0786 H   0  0  0  0  0  0  0  0  0  0  0  0
    3.5784   -2.7642    1.4797 H   0  0  0  0  0  0  0  0  0  0  0  0
    3.9308   -1.3174    2.5119 H   0  0  0  0  0  0  0  0  0  0  0  0
    4.1910   -1.6567   -0.4649 H   0  0  0  0  0  0  0  0  0  0  0  0
    5.1521   -0.6100    0.6508 H   0  0  0  0  0  0  0  0  0  0  0  0
    3.6421    1.1647    0.5412 H   0  0  0  0  0  0  0  0  0  0  0  0
    3.2389   -1.0697   -2.6862 H   0  0  0  0  0  0  0  0  0  0  0  0
    4.4121    1.6365   -2.3461 H   0  0  0  0  0  0  0  0  0  0  0  0
   -1.0617    1.1160   -1.9512 H   0  0  0  0  0  0  0  0  0  0  0  0
   -1.3256    2.2322   -0.6142 H   0  0  0  0  0  0  0  0  0  0  0  0
   -3.1251    2.1711   -2.4220 H   0  0  0  0  0  0  0  0  0  0  0  0
   -3.6797    2.1140   -0.7180 H   0  0  0  0  0  0  0  0  0  0  0  0
   -4.9119    0.4793   -2.1381 H   0  0  0  0  0  0  0  0  0  0  0  0
   -3.3744   -0.2930   -2.6195 H   0  0  0  0  0  0  0  0  0  0  0  0
   -4.9754   -0.5840   -0.0953 H   0  0  0  0  0  0  0  0  0  0  0  0
   -3.8439   -1.7280   -0.8659 H   0  0  0  0  0  0  0  0  0  0  0  0
   -2.8089   -1.2098    1.2132 H   0  0  0  0  0  0  0  0  0  0  0  0
   -3.3284    0.4952    1.1505 H   0  0  0  0  0  0  0  0  0  0  0  0
  1  2  1  0
  2  3  1  0
  3  4  1  0
  3  5  1  0
  5  6  2  0
  5  7  1  0
  7  8  1  0
  8  9  1  0
  9 10  1  0
 10 11  1  0
 11 12  1  0
 12 13  1  0
 12 14  1  0
  2 15  1  0
 15 16  1  0
 16 17  1  0
 17 18  1  0
 18 19  1  0
 19  2  1  0
 11  7  1  0
  1 20  1  0
  1 21  1  0
  1 22  1  0
  3 23  1  1
  4 24  1  0
  4 25  1  0
  8 26  1  0
  8 27  1  0
  9 28  1  0
  9 29  1  0
 10 30  1  0
 10 31  1  0
 11 32  1  1
 13 33  1  0
 14 34  1  0
 15 35  1  0
 15 36  1  0
 16 37  1  0
 16 38  1  0
 17 39  1  0
 17 40  1  0
 18 41  1  0
 18 42  1  0
 19 43  1  0
 19 44  1  0
M  END
$$$$
