
     RDKit          3D

 65 66  0  0  0  0  0  0  0  0999 V2000
   -3.9239   -0.7489   -1.8726 N   0  0  0  0  0  0  0  0  0  0  0  0
   -3.5250   -0.8767   -0.4664 C   0  0  0  0  0  0  0  0  0  0  0  0
   -2.2508   -1.7385   -0.3165 C   0  0  0  0  0  0  0  0  0  0  0  0
   -1.0523   -1.0763   -0.9420 C   0  0  0  0  0  0  0  0  0  0  0  0
   -0.7606   -1.3588   -2.1359 O   0  0  0  0  0  0  0  0  0  0  0  0
   -0.2623   -0.1058   -0.2264 N   0  0  0  0  0  0  0  0  0  0  0  0
   -0.4679    0.2537    1.1693 C   0  0  0  0  0  0  0  0  0  0  0  0
    0.6242    1.2619    1.5051 C   0  0  0  0  0  0  0  0  0  0  0  0
    1.1737    1.7469    0.1664 C   0  0  0  0  0  0  0  0  0  0  0  0
    0.7965    0.6724   -0.8549 C   0  0  1  0  0  0  0  0  0  0  0  0
    1.9791   -0.2000   -1.1905 C   0  0  0  0  0  0  0  0  0  0  0  0
    2.5516   -0.0554   -2.3045 O   0  0  0  0  0  0  0  0  0  0  0  0
    2.4840   -1.1503   -0.2397 N   0  0  0  0  0  0  0  0  0  0  0  0
    3.7610   -1.8340   -0.4239 C   0  0  0  0  0  0  0  0  0  0  0  0
    4.8960   -0.8670   -0.2246 C   0  0  0  0  0  0  0  0  0  0  0  0
    5.1523   -0.3411    1.0500 C   0  0  0  0  0  0  0  0  0  0  0  0
    6.1848    0.5816    1.2394 C   0  0  0  0  0  0  0  0  0  0  0  0
    6.9774    0.9971    0.1544 C   0  0  0  0  0  0  0  0  0  0  0  0
    8.0708    1.9747    0.3489 C   0  0  0  0  0  0  0  0  0  0  0  0
    8.3080    2.4485    1.4930 O   0  0  0  0  0  0  0  0  0  0  0  0
    8.8494    2.3812   -0.7318 O   0  0  0  0  0  0  0  0  0  0  0  0
    6.7141    0.4715   -1.1223 C   0  0  0  0  0  0  0  0  0  0  0  0
    5.6805   -0.4509   -1.3104 C   0  0  0  0  0  0  0  0  0  0  0  0
   -4.6798   -1.4858    0.3501 C   0  0  0  0  0  0  0  0  0  0  0  0
   -5.8987   -0.5961    0.3293 C   0  0  0  0  0  0  0  0  0  0  0  0
   -5.9807    0.4952    1.2114 C   0  0  0  0  0  0  0  0  0  0  0  0
   -7.0911    1.3439    1.1836 C   0  0  0  0  0  0  0  0  0  0  0  0
   -8.1243    1.1155    0.2718 C   0  0  0  0  0  0  0  0  0  0  0  0
   -8.0477    0.0397   -0.6165 C   0  0  0  0  0  0  0  0  0  0  0  0
   -6.9393   -0.8136   -0.5943 C   0  0  0  0  0  0  0  0  0  0  0  0
   -6.8816   -1.8460   -1.4735 F   0  0  0  0  0  0  0  0  0  0  0  0
    0.8538    0.9205   -1.1756 O   0  0  0  0  0  0  0  0  0  0  0  0
    0.4867    0.1378   -0.2588 C   0  0  0  0  0  0  0  0  0  0  0  0
    1.4360   -0.5876    0.4549 O   0  0  0  0  0  0  0  0  0  0  0  0
   -0.9599    0.0338    0.1011 C   0  0  0  0  0  0  0  0  0  0  0  0
   -1.2053   -1.1735    0.7293 F   0  0  0  0  0  0  0  0  0  0  0  0
   -1.7378    0.1136   -1.0399 F   0  0  0  0  0  0  0  0  0  0  0  0
   -1.2954    1.0673    0.9550 F   0  0  0  0  0  0  0  0  0  0  0  0
   -3.2150   -0.1716   -2.3796 H   0  0  0  0  0  0  0  0  0  0  0  0
   -3.9476   -1.6945   -2.3197 H   0  0  0  0  0  0  0  0  0  0  0  0
   -3.3187    0.1391   -0.0620 H   0  0  0  0  0  0  0  0  0  0  0  0
   -2.4109   -2.7329   -0.7883 H   0  0  0  0  0  0  0  0  0  0  0  0
   -2.0460   -1.9303    0.7573 H   0  0  0  0  0  0  0  0  0  0  0  0
   -0.3754   -0.6421    1.8202 H   0  0  0  0  0  0  0  0  0  0  0  0
   -1.4687    0.7170    1.2981 H   0  0  0  0  0  0  0  0  0  0  0  0
    0.2247    2.1066    2.1074 H   0  0  0  0  0  0  0  0  0  0  0  0
    1.4353    0.7599    2.0774 H   0  0  0  0  0  0  0  0  0  0  0  0
    2.2703    1.9290    0.2228 H   0  0  0  0  0  0  0  0  0  0  0  0
    0.6733    2.7026   -0.1055 H   0  0  0  0  0  0  0  0  0  0  0  0
    0.4068    1.1567   -1.7786 H   0  0  0  0  0  0  0  0  0  0  0  0
    1.9533   -1.3296    0.6416 H   0  0  0  0  0  0  0  0  0  0  0  0
    3.7944   -2.3049   -1.4305 H   0  0  0  0  0  0  0  0  0  0  0  0
    3.8511   -2.6523    0.3231 H   0  0  0  0  0  0  0  0  0  0  0  0
    4.5475   -0.6427    1.8965 H   0  0  0  0  0  0  0  0  0  0  0  0
    6.3602    0.9712    2.2344 H   0  0  0  0  0  0  0  0  0  0  0  0
    9.6004    3.0501   -0.6097 H   0  0  0  0  0  0  0  0  0  0  0  0
    7.3042    0.7744   -1.9781 H   0  0  0  0  0  0  0  0  0  0  0  0
    5.4910   -0.8367   -2.3044 H   0  0  0  0  0  0  0  0  0  0  0  0
   -4.3567   -1.6238    1.4057 H   0  0  0  0  0  0  0  0  0  0  0  0
   -4.9281   -2.4968   -0.0409 H   0  0  0  0  0  0  0  0  0  0  0  0
   -5.1832    0.6887    1.9183 H   0  0  0  0  0  0  0  0  0  0  0  0
   -7.1490    2.1808    1.8676 H   0  0  0  0  0  0  0  0  0  0  0  0
   -8.9828    1.7743    0.2509 H   0  0  0  0  0  0  0  0  0  0  0  0
   -8.8478   -0.1309   -1.3253 H   0  0  0  0  0  0  0  0  0  0  0  0
    2.4218   -0.5118    0.2339 H   0  0  0  0  0  0  0  0  0  0  0  0
  1  2  1  0
  2  3  1  0
  3  4  1  0
  4  5  2  0
  4  6  1  0
  6  7  1  0
  7  8  1  0
  8  9  1  0
  9 10  1  0
 10 11  1  0
 11 12  2  0
 11 13  1  0
 13 14  1  0
 14 15  1  0
 15 16  2  0
 16 17  1  0
 17 18  2  0
 18 19  1  0
 19 20  2  0
 19 21  1  0
 18 22  1  0
 22 23  2  0
  2 24  1  0
 24 25  1  0
 25 26  2  0
 26 27  1  0
 27 28  2  0
 28 29  1  0
 29 30  2  0
 30 31  1  0
 32 33  2  0
 33 34  1  0
 33 35  1  0
 35 36  1  0
 35 37  1  0
 35 38  1  0
 10  6  1  0
 23 15  1  0
 30 25  1  0
  1 39  1  0
  1 40  1  0
  2 41  1  0
  3 42  1  0
  3 43  1  0
  7 44  1  0
  7 45  1  0
  8 46  1  0
  8 47  1  0
  9 48  1  0
  9 49  1  0
 10 50  1  6
 13 51  1  0
 14 52  1  0
 14 53  1  0
 16 54  1  0
 17 55  1  0
 21 56  1  0
 22 57  1  0
 23 58  1  0
 24 59  1  0
 24 60  1  0
 26 61  1  0
 27 62  1  0
 28 63  1  0
 29 64  1  0
 34 65  1  0
M  END
$$$$
