
     RDKit          3D

 77 84  0  0  0  0  0  0  0  0999 V2000
    3.9376    0.3332   -2.8909 O   0  0  0  0  0  0  0  0  0  0  0  0
    4.1013    0.8582   -1.7563 C   0  0  0  0  0  0  0  0  0  0  0  0
    2.9111    1.4234   -1.0348 C   0  0  0  0  0  0  0  0  0  0  0  0
    2.6914    0.6954    0.2275 N   0  0  0  0  0  0  0  0  0  0  0  0
    1.6487   -0.3599    0.2141 C   0  0  0  0  0  0  0  0  0  0  0  0
    1.7642   -1.1413    1.5514 C   0  0  0  0  0  0  0  0  0  0  0  0
    0.7018   -2.2550    1.6241 C   0  0  0  0  0  0  0  0  0  0  0  0
    0.9087   -3.2379    0.4540 C   0  0  0  0  0  0  0  0  0  0  0  0
    0.7826   -2.4803   -0.8833 C   0  0  0  0  0  0  0  0  0  0  0  0
    1.8508   -1.3697   -0.9533 C   0  0  0  0  0  0  0  0  0  0  0  0
   -0.6249   -1.8526   -0.9922 C   0  0  0  0  0  0  0  0  0  0  0  0
   -0.8660   -0.8734    0.1906 C   0  0  0  0  0  0  0  0  0  0  0  0
   -2.2040   -0.2572    0.0946 N   0  0  0  0  0  0  0  0  0  0  0  0
   -3.4545   -0.9768    0.1128 C   0  0  0  0  0  0  0  0  0  0  0  0
   -3.4572   -2.2331    0.2262 O   0  0  0  0  0  0  0  0  0  0  0  0
   -4.7765   -0.2287   -0.0034 C   0  0  0  0  0  0  0  0  0  0  0  0
   -5.9841   -1.2150    0.0355 C   0  0  0  0  0  0  0  0  0  0  0  0
   -7.3149   -0.4415   -0.0832 C   0  0  0  0  0  0  0  0  0  0  0  0
   -7.4380    0.5509    1.0923 C   0  0  0  0  0  0  0  0  0  0  0  0
   -6.2586    1.5454    1.0531 C   0  0  0  0  0  0  0  0  0  0  0  0
   -6.2820    2.3198   -0.2832 C   0  0  0  0  0  0  0  0  0  0  0  0
   -6.1613    1.3270   -1.4603 C   0  0  0  0  0  0  0  0  0  0  0  0
   -7.3409    0.3327   -1.4179 C   0  0  0  0  0  0  0  0  0  0  0  0
   -4.8290    0.5532   -1.3465 C   0  0  0  0  0  0  0  0  0  0  0  0
   -4.9266    0.7725    1.1768 C   0  0  0  0  0  0  0  0  0  0  0  0
   -0.7064   -1.6309    1.5364 C   0  0  0  0  0  0  0  0  0  0  0  0
    0.2160    0.2453    0.1276 C   0  0  0  0  0  0  0  0  0  0  0  0
    5.4186    0.9117   -1.1828 N   0  0  0  0  0  0  0  0  0  0  0  0
    6.6000    0.3516   -1.8422 C   0  0  0  0  0  0  0  0  0  0  0  0
    7.6985    0.6904   -0.9061 C   0  0  0  0  0  0  0  0  0  0  0  0
    9.0566    0.3956   -1.0351 C   0  0  0  0  0  0  0  0  0  0  0  0
    9.9329    0.8151   -0.0211 C   0  0  0  0  0  0  0  0  0  0  0  0
    9.4413    1.5173    1.0968 C   0  0  0  0  0  0  0  0  0  0  0  0
   10.2938    1.9184    2.0716 F   0  0  0  0  0  0  0  0  0  0  0  0
    8.0701    1.8029    1.2051 C   0  0  0  0  0  0  0  0  0  0  0  0
    7.2179    1.3768    0.1850 C   0  0  0  0  0  0  0  0  0  0  0  0
    5.7501    1.5605    0.0890 C   0  0  0  0  0  0  0  0  0  0  0  0
    2.0195    1.4147   -1.6937 H   0  0  0  0  0  0  0  0  0  0  0  0
    3.1222    2.4937   -0.8186 H   0  0  0  0  0  0  0  0  0  0  0  0
    2.4576    1.3927    0.9739 H   0  0  0  0  0  0  0  0  0  0  0  0
    2.7795   -1.5872    1.6447 H   0  0  0  0  0  0  0  0  0  0  0  0
    1.6321   -0.4498    2.4133 H   0  0  0  0  0  0  0  0  0  0  0  0
    0.8046   -2.8009    2.5873 H   0  0  0  0  0  0  0  0  0  0  0  0
    1.9121   -3.7119    0.5287 H   0  0  0  0  0  0  0  0  0  0  0  0
    0.1528   -4.0524    0.5029 H   0  0  0  0  0  0  0  0  0  0  0  0
    0.9353   -3.1913   -1.7244 H   0  0  0  0  0  0  0  0  0  0  0  0
    1.7567   -0.8672   -1.9383 H   0  0  0  0  0  0  0  0  0  0  0  0
    2.8676   -1.8183   -0.9007 H   0  0  0  0  0  0  0  0  0  0  0  0
   -1.3752   -2.6697   -0.9966 H   0  0  0  0  0  0  0  0  0  0  0  0
   -0.7244   -1.3126   -1.9597 H   0  0  0  0  0  0  0  0  0  0  0  0
   -2.2520    0.7823    0.0060 H   0  0  0  0  0  0  0  0  0  0  0  0
   -5.9105   -1.9482   -0.7987 H   0  0  0  0  0  0  0  0  0  0  0  0
   -5.9797   -1.7930    0.9868 H   0  0  0  0  0  0  0  0  0  0  0  0
   -8.1646   -1.1579   -0.0538 H   0  0  0  0  0  0  0  0  0  0  0  0
   -8.4020    1.1017    1.0252 H   0  0  0  0  0  0  0  0  0  0  0  0
   -7.4382   -0.0011    2.0580 H   0  0  0  0  0  0  0  0  0  0  0  0
   -6.3510    2.2620    1.8981 H   0  0  0  0  0  0  0  0  0  0  0  0
   -5.4437    3.0501   -0.3142 H   0  0  0  0  0  0  0  0  0  0  0  0
   -7.2281    2.8981   -0.3700 H   0  0  0  0  0  0  0  0  0  0  0  0
   -6.1839    1.8868   -2.4206 H   0  0  0  0  0  0  0  0  0  0  0  0
   -7.2708   -0.3773   -2.2712 H   0  0  0  0  0  0  0  0  0  0  0  0
   -8.3035    0.8804   -1.5208 H   0  0  0  0  0  0  0  0  0  0  0  0
   -4.7310   -0.1506   -2.2030 H   0  0  0  0  0  0  0  0  0  0  0  0
   -3.9886    1.2765   -1.4196 H   0  0  0  0  0  0  0  0  0  0  0  0
   -4.0894    1.5031    1.1884 H   0  0  0  0  0  0  0  0  0  0  0  0
   -4.8993    0.2274    2.1467 H   0  0  0  0  0  0  0  0  0  0  0  0
   -1.4582   -2.4407    1.6345 H   0  0  0  0  0  0  0  0  0  0  0  0
   -0.8643   -0.9325    2.3879 H   0  0  0  0  0  0  0  0  0  0  0  0
    0.0604    0.9634    0.9637 H   0  0  0  0  0  0  0  0  0  0  0  0
    0.0855    0.8140   -0.8167 H   0  0  0  0  0  0  0  0  0  0  0  0
    6.5000   -0.7498   -1.9468 H   0  0  0  0  0  0  0  0  0  0  0  0
    6.7633    0.8386   -2.8272 H   0  0  0  0  0  0  0  0  0  0  0  0
    9.4270   -0.1444   -1.8968 H   0  0  0  0  0  0  0  0  0  0  0  0
   10.9901    0.5973   -0.1001 H   0  0  0  0  0  0  0  0  0  0  0  0
    7.6828    2.3411    2.0605 H   0  0  0  0  0  0  0  0  0  0  0  0
    5.4947    2.6408    0.0550 H   0  0  0  0  0  0  0  0  0  0  0  0
    5.2448    1.0482    0.9343 H   0  0  0  0  0  0  0  0  0  0  0  0
  1  2  2  0
  2  3  1  0
  3  4  1  0
  4  5  1  0
  5  6  1  0
  6  7  1  0
  7  8  1  0
  8  9  1  0
  9 10  1  0
  9 11  1  0
 11 12  1  0
 12 13  1  0
 13 14  1  0
 14 15  2  0
 14 16  1  0
 16 17  1  0
 17 18  1  0
 18 19  1  0
 19 20  1  0
 20 21  1  0
 21 22  1  0
 22 23  1  0
 22 24  1  0
 20 25  1  0
 12 26  1  0
 12 27  1  0
  2 28  1  0
 28 29  1  0
 29 30  1  0
 30 31  2  0
 31 32  1  0
 32 33  2  0
 33 34  1  0
 33 35  1  0
 35 36  2  0
 36 37  1  0
 10  5  1  0
 24 16  1  0
 37 28  1  0
 27  5  1  0
 36 30  1  0
 26  7  1  0
 25 16  1  0
 23 18  1  0
  3 38  1  0
  3 39  1  0
  4 40  1  0
  6 41  1  0
  6 42  1  0
  7 43  1  0
  8 44  1  0
  8 45  1  0
  9 46  1  0
 10 47  1  0
 10 48  1  0
 11 49  1  0
 11 50  1  0
 13 51  1  0
 17 52  1  0
 17 53  1  0
 18 54  1  0
 19 55  1  0
 19 56  1  0
 20 57  1  0
 21 58  1  0
 21 59  1  0
 22 60  1  0
 23 61  1  0
 23 62  1  0
 24 63  1  0
 24 64  1  0
 25 65  1  0
 25 66  1  0
 26 67  1  0
 26 68  1  0
 27 69  1  0
 27 70  1  0
 29 71  1  0
 29 72  1  0
 31 73  1  0
 32 74  1  0
 35 75  1  0
 37 76  1  0
 37 77  1  0
M  END
$$$$
