
     RDKit          3D

 35 37  0  0  0  0  0  0  0  0999 V2000
    5.3988    1.2649   -0.2193 C   0  0  0  0  0  0  0  0  0  0  0  0
    3.9420    0.9178   -0.3089 C   0  0  0  0  0  0  0  0  0  0  0  0
    3.0959    1.6415   -1.1599 C   0  0  0  0  0  0  0  0  0  0  0  0
    1.7317    1.3499   -1.2103 C   0  0  0  0  0  0  0  0  0  0  0  0
    1.1908    0.3400   -0.4034 C   0  0  0  0  0  0  0  0  0  0  0  0
   -0.2209    0.0751   -0.4631 N   0  0  0  0  0  0  0  0  0  0  0  0
   -0.7746   -0.6074   -1.6007 C   0  0  0  0  0  0  0  0  0  0  0  0
   -0.0112   -1.0877   -2.4824 O   0  0  0  0  0  0  0  0  0  0  0  0
   -2.2608   -0.7077   -1.7973 C   0  0  0  0  0  0  0  0  0  0  0  0
   -3.0494   -0.5476   -0.5201 C   0  0  0  0  0  0  0  0  0  0  0  0
   -4.3981   -0.9407   -0.5048 C   0  0  0  0  0  0  0  0  0  0  0  0
   -5.1817   -0.7425    0.6340 C   0  0  0  0  0  0  0  0  0  0  0  0
   -4.6319   -0.1371    1.7643 C   0  0  0  0  0  0  0  0  0  0  0  0
   -3.2964    0.2713    1.7602 C   0  0  0  0  0  0  0  0  0  0  0  0
   -2.4957    0.0720    0.6208 C   0  0  0  0  0  0  0  0  0  0  0  0
   -1.0774    0.4795    0.6165 C   0  0  0  0  0  0  0  0  0  0  0  0
   -0.6139    1.1711    1.5652 O   0  0  0  0  0  0  0  0  0  0  0  0
    2.0358   -0.4009    0.4521 C   0  0  0  0  0  0  0  0  0  0  0  0
    1.4872   -1.4898    1.3335 C   0  0  0  0  0  0  0  0  0  0  0  0
    3.4043   -0.0877    0.5083 C   0  0  0  0  0  0  0  0  0  0  0  0
    5.5479    2.0300    0.5709 H   0  0  0  0  0  0  0  0  0  0  0  0
    5.7670    1.6670   -1.1872 H   0  0  0  0  0  0  0  0  0  0  0  0
    6.0009    0.3650    0.0290 H   0  0  0  0  0  0  0  0  0  0  0  0
    3.4914    2.4354   -1.7814 H   0  0  0  0  0  0  0  0  0  0  0  0
    1.0885    1.9192   -1.8696 H   0  0  0  0  0  0  0  0  0  0  0  0
   -2.5753    0.0832   -2.5107 H   0  0  0  0  0  0  0  0  0  0  0  0
   -2.4936   -1.6959   -2.2511 H   0  0  0  0  0  0  0  0  0  0  0  0
   -4.8449   -1.3961   -1.3802 H   0  0  0  0  0  0  0  0  0  0  0  0
   -6.2188   -1.0523    0.6374 H   0  0  0  0  0  0  0  0  0  0  0  0
   -5.2419    0.0174    2.6450 H   0  0  0  0  0  0  0  0  0  0  0  0
   -2.8891    0.7362    2.6493 H   0  0  0  0  0  0  0  0  0  0  0  0
    2.2892   -2.1902    1.6499 H   0  0  0  0  0  0  0  0  0  0  0  0
    0.7203   -2.0814    0.7905 H   0  0  0  0  0  0  0  0  0  0  0  0
    1.0297   -1.0403    2.2390 H   0  0  0  0  0  0  0  0  0  0  0  0
    4.0542   -0.6308    1.1846 H   0  0  0  0  0  0  0  0  0  0  0  0
  1  2  1  0
  2  3  2  0
  3  4  1  0
  4  5  2  0
  5  6  1  0
  6  7  1  0
  7  8  2  0
  7  9  1  0
  9 10  1  0
 10 11  2  0
 11 12  1  0
 12 13  2  0
 13 14  1  0
 14 15  2  0
 15 16  1  0
 16 17  2  0
  5 18  1  0
 18 19  1  0
 18 20  2  0
 20  2  1  0
 16  6  1  0
 15 10  1  0
  1 21  1  0
  1 22  1  0
  1 23  1  0
  3 24  1  0
  4 25  1  0
  9 26  1  0
  9 27  1  0
 11 28  1  0
 12 29  1  0
 13 30  1  0
 14 31  1  0
 19 32  1  0
 19 33  1  0
 19 34  1  0
 20 35  1  0
M  END
$$$$
