
     RDKit          3D

 48 49  0  0  0  0  0  0  0  0999 V2000
    2.5559   -2.1792   -0.8896 C   0  0  0  0  0  0  0  0  0  0  0  0
    2.3937   -1.0932    0.1784 C   0  0  1  0  0  0  0  0  0  0  0  0
    3.7375   -0.7737    0.7624 C   0  0  0  0  0  0  0  0  0  0  0  0
    4.4485   -1.5722    1.5821 N   0  0  0  0  0  0  0  0  0  0  0  0
    5.6171   -0.9721    1.7764 N   0  0  0  0  0  0  0  0  0  0  0  0
    5.5990    0.1733    1.0619 C   0  0  0  0  0  0  0  0  0  0  0  0
    6.7443    1.1357    0.9882 C   0  0  0  0  0  0  0  0  0  0  0  0
    7.1002    1.3360   -0.3325 F   0  0  0  0  0  0  0  0  0  0  0  0
    6.3716    2.3419    1.5510 F   0  0  0  0  0  0  0  0  0  0  0  0
    7.8341    0.6344    1.6769 F   0  0  0  0  0  0  0  0  0  0  0  0
    4.4207    0.3233    0.4298 N   0  0  0  0  0  0  0  0  0  0  0  0
    3.9640    1.3149   -0.5297 C   0  0  0  0  0  0  0  0  0  0  0  0
    2.4376    1.4345   -0.4383 C   0  0  0  0  0  0  0  0  0  0  0  0
    1.7661    0.1151   -0.4164 N   0  0  0  0  0  0  0  0  0  0  0  0
    0.4038    0.0588   -0.8861 C   0  0  0  0  0  0  0  0  0  0  0  0
    0.1032    0.6193   -1.9756 O   0  0  0  0  0  0  0  0  0  0  0  0
   -0.6566   -0.7023   -0.1272 C   0  0  0  0  0  0  0  0  0  0  0  0
   -2.0512   -0.0395   -0.2052 C   0  0  2  0  0  0  0  0  0  0  0  0
   -2.0408    1.2473    0.5011 N   0  0  0  0  0  0  0  0  0  0  0  0
   -3.1035   -0.9796    0.4218 C   0  0  0  0  0  0  0  0  0  0  0  0
   -4.5119   -0.4805    0.2047 C   0  0  0  0  0  0  0  0  0  0  0  0
   -5.1347   -0.6721   -1.0406 C   0  0  0  0  0  0  0  0  0  0  0  0
   -6.4309   -0.1977   -1.2638 C   0  0  0  0  0  0  0  0  0  0  0  0
   -7.0226   -0.3902   -2.4686 F   0  0  0  0  0  0  0  0  0  0  0  0
   -7.1142    0.4761   -0.2473 C   0  0  0  0  0  0  0  0  0  0  0  0
   -8.3709    0.9379   -0.4628 F   0  0  0  0  0  0  0  0  0  0  0  0
   -6.5008    0.6776    0.9921 C   0  0  0  0  0  0  0  0  0  0  0  0
   -5.2043    0.2051    1.2214 C   0  0  0  0  0  0  0  0  0  0  0  0
   -4.6255    0.4231    2.4295 F   0  0  0  0  0  0  0  0  0  0  0  0
    0.6878    0.0000    0.0000 Cl  0  0  0  0  0  0  0  0  0  0  0  0
    1.5662   -2.4750   -1.2950 H   0  0  0  0  0  0  0  0  0  0  0  0
    3.1865   -1.8072   -1.7258 H   0  0  0  0  0  0  0  0  0  0  0  0
    3.0307   -3.0837   -0.4526 H   0  0  0  0  0  0  0  0  0  0  0  0
    1.7622   -1.4869    1.0012 H   0  0  0  0  0  0  0  0  0  0  0  0
    4.2536    0.9923   -1.5529 H   0  0  0  0  0  0  0  0  0  0  0  0
    4.4267    2.3022   -0.3175 H   0  0  0  0  0  0  0  0  0  0  0  0
    2.1699    1.9841    0.4899 H   0  0  0  0  0  0  0  0  0  0  0  0
    2.0887    2.0400   -1.3028 H   0  0  0  0  0  0  0  0  0  0  0  0
   -0.7034   -1.7291   -0.5487 H   0  0  0  0  0  0  0  0  0  0  0  0
   -0.3715   -0.7790    0.9433 H   0  0  0  0  0  0  0  0  0  0  0  0
   -2.3160    0.1225   -1.2754 H   0  0  0  0  0  0  0  0  0  0  0  0
   -2.9497    1.7323    0.3238 H   0  0  0  0  0  0  0  0  0  0  0  0
   -1.3160    1.8664    0.0720 H   0  0  0  0  0  0  0  0  0  0  0  0
   -3.0196   -1.9905   -0.0349 H   0  0  0  0  0  0  0  0  0  0  0  0
   -2.8943   -1.1059    1.5067 H   0  0  0  0  0  0  0  0  0  0  0  0
   -4.6136   -1.1883   -1.8377 H   0  0  0  0  0  0  0  0  0  0  0  0
   -7.0300    1.2036    1.7764 H   0  0  0  0  0  0  0  0  0  0  0  0
   -0.6878    0.0000    0.0000 H   0  0  0  0  0  0  0  0  0  0  0  0
  1  2  1  0
  2  3  1  0
  3  4  2  0
  4  5  1  0
  5  6  2  0
  6  7  1  0
  7  8  1  0
  7  9  1  0
  7 10  1  0
  6 11  1  0
 11 12  1  0
 12 13  1  0
 13 14  1  0
 14 15  1  0
 15 16  2  0
 15 17  1  0
 17 18  1  0
 18 19  1  0
 18 20  1  0
 20 21  1  0
 21 22  2  0
 22 23  1  0
 23 24  1  0
 23 25  2  0
 25 26  1  0
 25 27  1  0
 27 28  2  0
 28 29  1  0
 14  2  1  0
 28 21  1  0
 11  3  1  0
  1 31  1  0
  1 32  1  0
  1 33  1  0
  2 34  1  1
 12 35  1  0
 12 36  1  0
 13 37  1  0
 13 38  1  0
 17 39  1  0
 17 40  1  0
 18 41  1  6
 19 42  1  0
 19 43  1  0
 20 44  1  0
 20 45  1  0
 22 46  1  0
 27 47  1  0
 30 48  1  0
M  END
$$$$
