
     RDKit          3D

 54 55  0  0  0  0  0  0  0  0999 V2000
   -6.0122    2.1675    0.4532 N   0  0  0  0  0  0  0  0  0  0  0  0
   -5.3405    1.2617    0.7136 C   0  0  0  0  0  0  0  0  0  0  0  0
   -4.4886    0.1078    1.0454 C   0  0  2  0  0  0  0  0  0  0  0  0
   -4.5449   -0.2134    2.5387 C   0  0  0  0  0  0  0  0  0  0  0  0
   -3.2605    0.3529    3.1364 C   0  0  0  0  0  0  0  0  0  0  0  0
   -2.2883    0.5057    1.9740 C   0  0  0  0  0  0  0  0  0  0  0  0
   -3.0945    0.4210    0.7656 N   0  0  0  0  0  0  0  0  0  0  0  0
   -2.5634    0.4911   -0.5734 C   0  0  0  0  0  0  0  0  0  0  0  0
   -3.3362    0.3124   -1.5547 O   0  0  0  0  0  0  0  0  0  0  0  0
   -1.0841    0.7033   -0.8325 C   0  0  1  0  0  0  0  0  0  0  0  0
   -0.4159   -0.5878   -1.0095 N   0  0  0  0  0  0  0  0  0  0  0  0
   -0.8582    1.6044   -2.0678 C   0  0  0  0  0  0  0  0  0  0  0  0
    0.5732    2.1609   -2.1600 C   0  0  0  0  0  0  0  0  0  0  0  0
    1.5680    1.1029   -2.5717 C   0  0  0  0  0  0  0  0  0  0  0  0
    1.6037    0.7633   -3.7865 O   0  0  0  0  0  0  0  0  0  0  0  0
    2.4171    0.4241   -1.6188 N   0  0  0  0  0  0  0  0  0  0  0  0
    2.7471    1.0718   -0.3267 C   0  0  0  0  0  0  0  0  0  0  0  0
    4.0043    0.4919    0.3438 C   0  0  0  0  0  0  0  0  0  0  0  0
    3.9688   -0.9972    0.3071 C   0  0  0  0  0  0  0  0  0  0  0  0
    4.5360   -1.8538    1.2592 C   0  0  0  0  0  0  0  0  0  0  0  0
    4.4259   -3.1978    0.9146 C   0  0  0  0  0  0  0  0  0  0  0  0
    3.6468   -3.3072   -0.5785 S   0  0  0  0  0  0  0  0  0  0  0  0
    3.4279   -1.6534   -0.7740 C   0  0  0  0  0  0  0  0  0  0  0  0
    2.8543   -0.9481   -1.9566 C   0  0  0  0  0  0  0  0  0  0  0  0
    1.0621    0.1619   -1.3439 O   0  0  0  0  0  0  0  0  0  0  0  0
    0.5272    0.0208   -0.2116 C   0  0  0  0  0  0  0  0  0  0  0  0
    1.3190   -0.2472    0.9011 O   0  0  0  0  0  0  0  0  0  0  0  0
   -0.9595    0.0805   -0.0736 C   0  0  0  0  0  0  0  0  0  0  0  0
   -1.4963   -1.1613   -0.3558 F   0  0  0  0  0  0  0  0  0  0  0  0
   -1.4801    1.0128   -0.9529 F   0  0  0  0  0  0  0  0  0  0  0  0
   -1.2992    0.4413    1.2176 F   0  0  0  0  0  0  0  0  0  0  0  0
   -4.8138   -0.7762    0.4548 H   0  0  0  0  0  0  0  0  0  0  0  0
   -4.5525   -1.3180    2.6741 H   0  0  0  0  0  0  0  0  0  0  0  0
   -5.4440    0.2057    3.0434 H   0  0  0  0  0  0  0  0  0  0  0  0
   -2.8515   -0.3213    3.9200 H   0  0  0  0  0  0  0  0  0  0  0  0
   -3.4677    1.3494    3.5850 H   0  0  0  0  0  0  0  0  0  0  0  0
   -1.5412   -0.3168    1.9868 H   0  0  0  0  0  0  0  0  0  0  0  0
   -1.7753    1.4896    2.0336 H   0  0  0  0  0  0  0  0  0  0  0  0
   -0.6323    1.2194    0.0396 H   0  0  0  0  0  0  0  0  0  0  0  0
   -0.8988   -1.1307   -1.7631 H   0  0  0  0  0  0  0  0  0  0  0  0
   -0.5017   -1.1375   -0.1239 H   0  0  0  0  0  0  0  0  0  0  0  0
   -1.5466    2.4759   -1.9999 H   0  0  0  0  0  0  0  0  0  0  0  0
   -1.1140    1.0572   -3.0028 H   0  0  0  0  0  0  0  0  0  0  0  0
    0.5873    2.9606   -2.9325 H   0  0  0  0  0  0  0  0  0  0  0  0
    0.8435    2.6515   -1.2036 H   0  0  0  0  0  0  0  0  0  0  0  0
    2.9386    2.1549   -0.4863 H   0  0  0  0  0  0  0  0  0  0  0  0
    1.8820    0.9662    0.3629 H   0  0  0  0  0  0  0  0  0  0  0  0
    4.9091    0.8400   -0.2004 H   0  0  0  0  0  0  0  0  0  0  0  0
    4.0633    0.8498    1.3944 H   0  0  0  0  0  0  0  0  0  0  0  0
    5.0260   -1.5084    2.1608 H   0  0  0  0  0  0  0  0  0  0  0  0
    4.7957   -4.0306    1.4977 H   0  0  0  0  0  0  0  0  0  0  0  0
    1.9874   -1.5382   -2.3237 H   0  0  0  0  0  0  0  0  0  0  0  0
    3.6207   -0.9036   -2.7578 H   0  0  0  0  0  0  0  0  0  0  0  0
    2.3268   -0.3088    0.8190 H   0  0  0  0  0  0  0  0  0  0  0  0
  1  2  3  0
  2  3  1  0
  3  4  1  0
  4  5  1  0
  5  6  1  0
  6  7  1  0
  7  8  1  0
  8  9  2  0
  8 10  1  0
 10 11  1  0
 10 12  1  0
 12 13  1  0
 13 14  1  0
 14 15  2  0
 14 16  1  0
 16 17  1  0
 17 18  1  0
 18 19  1  0
 19 20  1  0
 20 21  2  0
 21 22  1  0
 22 23  1  0
 23 24  1  0
 25 26  2  0
 26 27  1  0
 26 28  1  0
 28 29  1  0
 28 30  1  0
 28 31  1  0
  7  3  1  0
 24 16  1  0
 23 19  2  0
  3 32  1  6
  4 33  1  0
  4 34  1  0
  5 35  1  0
  5 36  1  0
  6 37  1  0
  6 38  1  0
 10 39  1  1
 11 40  1  0
 11 41  1  0
 12 42  1  0
 12 43  1  0
 13 44  1  0
 13 45  1  0
 17 46  1  0
 17 47  1  0
 18 48  1  0
 18 49  1  0
 20 50  1  0
 21 51  1  0
 24 52  1  0
 24 53  1  0
 27 54  1  0
M  END
$$$$
