
     RDKit          3D

 43 44  0  0  0  0  0  0  0  0999 V2000
    7.5333    0.8830   -0.7686 C   0  0  0  0  0  0  0  0  0  0  0  0
    6.0595    0.6985   -0.5590 C   0  0  0  0  0  0  0  0  0  0  0  0
    5.5487   -0.5559   -0.1973 C   0  0  0  0  0  0  0  0  0  0  0  0
    4.1719   -0.7395   -0.0375 C   0  0  0  0  0  0  0  0  0  0  0  0
    3.2806    0.3293   -0.2441 C   0  0  0  0  0  0  0  0  0  0  0  0
    1.8170    0.1517   -0.0853 C   0  0  0  0  0  0  0  0  0  0  0  0
    1.0323    0.9096   -0.7193 O   0  0  0  0  0  0  0  0  0  0  0  0
    1.2791   -0.8566    0.7875 N   0  0  0  0  0  0  0  0  0  0  0  0
   -0.1556   -1.1157    0.8890 C   0  0  0  0  0  0  0  0  0  0  0  0
   -0.8303   -0.0533    1.7599 C   0  0  0  0  0  0  0  0  0  0  0  0
   -2.3106   -0.3009    1.8351 C   0  0  0  0  0  0  0  0  0  0  0  0
   -2.7712   -0.9306    2.8258 O   0  0  0  0  0  0  0  0  0  0  0  0
   -3.1951    0.1038    0.7714 N   0  0  0  0  0  0  0  0  0  0  0  0
   -2.8501    1.0965   -0.2339 C   0  0  0  0  0  0  0  0  0  0  0  0
   -4.1547    1.4456   -0.9380 C   0  0  0  0  0  0  0  0  0  0  0  0
   -5.1325    0.3260   -0.5937 C   0  0  0  0  0  0  0  0  0  0  0  0
   -4.5828   -0.3315    0.6744 C   0  0  1  0  0  0  0  0  0  0  0  0
   -4.6831   -1.8337    0.5971 C   0  0  0  0  0  0  0  0  0  0  0  0
   -5.7471   -2.5192    1.2566 N   0  0  0  0  0  0  0  0  0  0  0  0
   -3.8500   -2.4883   -0.0863 O   0  0  0  0  0  0  0  0  0  0  0  0
    3.7969    1.5769   -0.6378 C   0  0  0  0  0  0  0  0  0  0  0  0
    5.1738    1.7588   -0.7959 C   0  0  0  0  0  0  0  0  0  0  0  0
    8.1113    0.2100   -0.1001 H   0  0  0  0  0  0  0  0  0  0  0  0
    7.7879    0.6515   -1.8238 H   0  0  0  0  0  0  0  0  0  0  0  0
    7.8329    1.9290   -0.5444 H   0  0  0  0  0  0  0  0  0  0  0  0
    6.2163   -1.3951   -0.0445 H   0  0  0  0  0  0  0  0  0  0  0  0
    3.8110   -1.7265    0.2181 H   0  0  0  0  0  0  0  0  0  0  0  0
    1.9166   -1.4219    1.3907 H   0  0  0  0  0  0  0  0  0  0  0  0
   -0.3119   -2.1155    1.3506 H   0  0  0  0  0  0  0  0  0  0  0  0
   -0.6055   -1.1392   -0.1274 H   0  0  0  0  0  0  0  0  0  0  0  0
   -0.6318    0.9609    1.3584 H   0  0  0  0  0  0  0  0  0  0  0  0
   -0.3957   -0.0914    2.7828 H   0  0  0  0  0  0  0  0  0  0  0  0
   -2.1214    0.6647   -0.9529 H   0  0  0  0  0  0  0  0  0  0  0  0
   -2.4232    2.0052    0.2428 H   0  0  0  0  0  0  0  0  0  0  0  0
   -4.5446    2.4103   -0.5445 H   0  0  0  0  0  0  0  0  0  0  0  0
   -4.0097    1.5337   -2.0367 H   0  0  0  0  0  0  0  0  0  0  0  0
   -5.1662   -0.3928   -1.4434 H   0  0  0  0  0  0  0  0  0  0  0  0
   -6.1561    0.7264   -0.4258 H   0  0  0  0  0  0  0  0  0  0  0  0
   -5.1384    0.0441    1.5621 H   0  0  0  0  0  0  0  0  0  0  0  0
   -6.4627   -1.9928    1.8051 H   0  0  0  0  0  0  0  0  0  0  0  0
   -5.8231   -3.5586    1.1927 H   0  0  0  0  0  0  0  0  0  0  0  0
    3.1355    2.4159   -0.8160 H   0  0  0  0  0  0  0  0  0  0  0  0
    5.5488    2.7277   -1.1022 H   0  0  0  0  0  0  0  0  0  0  0  0
  1  2  1  0
  2  3  2  0
  3  4  1  0
  4  5  2  0
  5  6  1  0
  6  7  2  0
  6  8  1  0
  8  9  1  0
  9 10  1  0
 10 11  1  0
 11 12  2  0
 11 13  1  0
 13 14  1  0
 14 15  1  0
 15 16  1  0
 16 17  1  0
 17 18  1  0
 18 19  1  0
 18 20  2  0
  5 21  1  0
 21 22  2  0
 22  2  1  0
 17 13  1  0
  1 23  1  0
  1 24  1  0
  1 25  1  0
  3 26  1  0
  4 27  1  0
  8 28  1  0
  9 29  1  0
  9 30  1  0
 10 31  1  0
 10 32  1  0
 14 33  1  0
 14 34  1  0
 15 35  1  0
 15 36  1  0
 16 37  1  0
 16 38  1  0
 17 39  1  1
 19 40  1  0
 19 41  1  0
 21 42  1  0
 22 43  1  0
M  END
$$$$
