
     RDKit          3D

 82 87  0  0  0  0  0  0  0  0999 V2000
   -5.3488   -1.7503   -3.9210 C   0  0  0  0  0  0  0  0  0  0  0  0
   -5.3285   -0.6065   -3.0098 C   0  0  0  0  0  0  0  0  0  0  0  0
   -5.3106    0.3336   -2.2561 C   0  0  0  0  0  0  0  0  0  0  0  0
   -5.2848    1.4714   -1.3328 C   0  0  0  0  0  0  0  0  0  0  0  0
   -4.3561    1.2034   -0.2322 N   0  0  0  0  0  0  0  0  0  0  0  0
   -4.6471    0.7949    1.0347 C   0  0  0  0  0  0  0  0  0  0  0  0
   -5.9659    0.4539    1.4924 N   0  0  0  0  0  0  0  0  0  0  0  0
   -6.3841    0.9000    2.8277 C   0  0  0  0  0  0  0  0  0  0  0  0
   -7.8926    0.7122    3.0180 C   0  0  0  0  0  0  0  0  0  0  0  0
   -8.3370   -0.7419    2.7680 C   0  0  0  0  0  0  0  0  0  0  0  0
   -7.4600   -1.4927    1.7373 C   0  0  1  0  0  0  0  0  0  0  0  0
   -8.2578   -2.4948    1.0270 N   0  0  0  0  0  0  0  0  0  0  0  0
   -6.7764   -0.5255    0.7533 C   0  0  0  0  0  0  0  0  0  0  0  0
   -3.5603    0.7189    1.8456 N   0  0  0  0  0  0  0  0  0  0  0  0
   -2.5538    1.0767    1.0257 C   0  0  0  0  0  0  0  0  0  0  0  0
   -3.0176    1.3624   -0.2139 C   0  0  0  0  0  0  0  0  0  0  0  0
   -2.1358    1.7446   -1.2197 C   0  0  0  0  0  0  0  0  0  0  0  0
   -2.5579    1.9997   -2.3806 O   0  0  0  0  0  0  0  0  0  0  0  0
   -0.7947    1.8322   -0.9175 N   0  0  0  0  0  0  0  0  0  0  0  0
    0.1692    2.1860   -1.9825 C   0  0  0  0  0  0  0  0  0  0  0  0
    0.3956    1.0189   -2.9616 C   0  0  0  0  0  0  0  0  0  0  0  0
    0.8352   -0.2876   -2.2783 C   0  0  0  0  0  0  0  0  0  0  0  0
    2.0228   -0.0896   -1.4176 N   0  0  0  0  0  0  0  0  0  0  0  0
    2.1075   -1.1713   -0.4170 C   0  0  0  0  0  0  0  0  0  0  0  0
    3.2595   -0.9100    0.5549 C   0  0  0  0  0  0  0  0  0  0  0  0
    4.5086   -0.6557   -0.1739 N   0  0  0  0  0  0  0  0  0  0  0  0
    5.7652   -0.9620    0.4641 C   0  0  0  0  0  0  0  0  0  0  0  0
    5.9013   -1.8790    1.4409 N   0  0  0  0  0  0  0  0  0  0  0  0
    7.1785   -1.8776    1.7892 N   0  0  0  0  0  0  0  0  0  0  0  0
    7.8008   -0.9590    1.0216 C   0  0  0  0  0  0  0  0  0  0  0  0
    9.2493   -0.6525    1.1229 C   0  0  0  0  0  0  0  0  0  0  0  0
   10.0304   -1.2805    2.1118 C   0  0  0  0  0  0  0  0  0  0  0  0
   11.3965   -1.0031    2.2204 C   0  0  0  0  0  0  0  0  0  0  0  0
   11.9995   -0.0988    1.3445 C   0  0  0  0  0  0  0  0  0  0  0  0
   11.2377    0.5292    0.3575 C   0  0  0  0  0  0  0  0  0  0  0  0
    9.8707    0.2561    0.2438 C   0  0  0  0  0  0  0  0  0  0  0  0
    6.9365   -0.3618    0.1756 N   0  0  0  0  0  0  0  0  0  0  0  0
    4.4678    0.2461   -1.3319 C   0  0  0  0  0  0  0  0  0  0  0  0
    3.2621   -0.0681   -2.2202 C   0  0  0  0  0  0  0  0  0  0  0  0
   -0.3542    1.5679    0.3708 C   0  0  0  0  0  0  0  0  0  0  0  0
    0.8671    1.7094    0.6610 O   0  0  0  0  0  0  0  0  0  0  0  0
   -1.2345    1.1557    1.3464 N   0  0  0  0  0  0  0  0  0  0  0  0
   -0.7731    0.8747    2.7126 C   0  0  0  0  0  0  0  0  0  0  0  0
   -5.9136   -1.4832   -4.8377 H   0  0  0  0  0  0  0  0  0  0  0  0
   -4.3087   -2.0239   -4.1937 H   0  0  0  0  0  0  0  0  0  0  0  0
   -5.8390   -2.6114   -3.4219 H   0  0  0  0  0  0  0  0  0  0  0  0
   -4.9800    2.3871   -1.8795 H   0  0  0  0  0  0  0  0  0  0  0  0
   -6.3059    1.6595   -0.9452 H   0  0  0  0  0  0  0  0  0  0  0  0
   -5.8332    0.3230    3.6020 H   0  0  0  0  0  0  0  0  0  0  0  0
   -6.1421    1.9780    2.9531 H   0  0  0  0  0  0  0  0  0  0  0  0
   -8.4229    1.3821    2.3055 H   0  0  0  0  0  0  0  0  0  0  0  0
   -8.1809    1.0204    4.0461 H   0  0  0  0  0  0  0  0  0  0  0  0
   -8.3109   -1.3008    3.7291 H   0  0  0  0  0  0  0  0  0  0  0  0
   -9.3976   -0.7243    2.4334 H   0  0  0  0  0  0  0  0  0  0  0  0
   -6.6555   -2.0225    2.2967 H   0  0  0  0  0  0  0  0  0  0  0  0
   -7.6192   -3.0673    0.4279 H   0  0  0  0  0  0  0  0  0  0  0  0
   -8.9308   -2.0113    0.3880 H   0  0  0  0  0  0  0  0  0  0  0  0
   -6.1324   -1.1148    0.0645 H   0  0  0  0  0  0  0  0  0  0  0  0
   -7.5454    0.0065    0.1536 H   0  0  0  0  0  0  0  0  0  0  0  0
    1.1474    2.5090   -1.5663 H   0  0  0  0  0  0  0  0  0  0  0  0
   -0.2104    3.0627   -2.5519 H   0  0  0  0  0  0  0  0  0  0  0  0
   -0.5427    0.8208   -3.5219 H   0  0  0  0  0  0  0  0  0  0  0  0
    1.1478    1.3255   -3.7176 H   0  0  0  0  0  0  0  0  0  0  0  0
    1.0286   -1.0631   -3.0539 H   0  0  0  0  0  0  0  0  0  0  0  0
   -0.0303   -0.6510   -1.6794 H   0  0  0  0  0  0  0  0  0  0  0  0
    2.2509   -2.1593   -0.9120 H   0  0  0  0  0  0  0  0  0  0  0  0
    1.1697   -1.2175    0.1803 H   0  0  0  0  0  0  0  0  0  0  0  0
    3.3597   -1.7948    1.2197 H   0  0  0  0  0  0  0  0  0  0  0  0
    3.0213   -0.0267    1.1860 H   0  0  0  0  0  0  0  0  0  0  0  0
    9.5861   -1.9849    2.8038 H   0  0  0  0  0  0  0  0  0  0  0  0
   11.9879   -1.4904    2.9849 H   0  0  0  0  0  0  0  0  0  0  0  0
   13.0572    0.1146    1.4299 H   0  0  0  0  0  0  0  0  0  0  0  0
   11.7071    1.2286   -0.3224 H   0  0  0  0  0  0  0  0  0  0  0  0
    9.3137    0.7552   -0.5357 H   0  0  0  0  0  0  0  0  0  0  0  0
    7.1177    0.4036   -0.5086 H   0  0  0  0  0  0  0  0  0  0  0  0
    4.4083    1.2976   -0.9763 H   0  0  0  0  0  0  0  0  0  0  0  0
    5.3811    0.1281   -1.9531 H   0  0  0  0  0  0  0  0  0  0  0  0
    3.2081    0.7195   -3.0004 H   0  0  0  0  0  0  0  0  0  0  0  0
    3.4231   -1.0460   -2.7298 H   0  0  0  0  0  0  0  0  0  0  0  0
   -1.4883    0.2219    3.2570 H   0  0  0  0  0  0  0  0  0  0  0  0
    0.2018    0.3416    2.6928 H   0  0  0  0  0  0  0  0  0  0  0  0
   -0.6580    1.8281    3.2697 H   0  0  0  0  0  0  0  0  0  0  0  0
  1  2  1  0
  2  3  3  0
  3  4  1  0
  4  5  1  0
  5  6  1  0
  6  7  1  0
  7  8  1  0
  8  9  1  0
  9 10  1  0
 10 11  1  0
 11 12  1  0
 11 13  1  0
  6 14  2  0
 14 15  1  0
 15 16  2  0
 16 17  1  0
 17 18  2  0
 17 19  1  0
 19 20  1  0
 20 21  1  0
 21 22  1  0
 22 23  1  0
 23 24  1  0
 24 25  1  0
 25 26  1  0
 26 27  1  0
 27 28  2  0
 28 29  1  0
 29 30  2  0
 30 31  1  0
 31 32  2  0
 32 33  1  0
 33 34  2  0
 34 35  1  0
 35 36  2  0
 30 37  1  0
 26 38  1  0
 38 39  1  0
 19 40  1  0
 40 41  2  0
 40 42  1  0
 42 43  1  0
 16  5  1  0
 39 23  1  0
 13  7  1  0
 42 15  1  0
 37 27  1  0
 36 31  1  0
  1 44  1  0
  1 45  1  0
  1 46  1  0
  4 47  1  0
  4 48  1  0
  8 49  1  0
  8 50  1  0
  9 51  1  0
  9 52  1  0
 10 53  1  0
 10 54  1  0
 11 55  1  1
 12 56  1  0
 12 57  1  0
 13 58  1  0
 13 59  1  0
 20 60  1  0
 20 61  1  0
 21 62  1  0
 21 63  1  0
 22 64  1  0
 22 65  1  0
 24 66  1  0
 24 67  1  0
 25 68  1  0
 25 69  1  0
 32 70  1  0
 33 71  1  0
 34 72  1  0
 35 73  1  0
 36 74  1  0
 37 75  1  0
 38 76  1  0
 38 77  1  0
 39 78  1  0
 39 79  1  0
 43 80  1  0
 43 81  1  0
 43 82  1  0
M  END
$$$$
