
     RDKit          3D

 39 41  0  0  0  0  0  0  0  0999 V2000
   -3.5163   -0.2248   -3.4725 N   0  0  0  0  0  0  0  0  0  0  0  0
   -3.3469   -0.3109   -2.3310 C   0  0  0  0  0  0  0  0  0  0  0  0
   -3.1308   -0.4196   -0.8789 C   0  0  2  0  0  0  0  0  0  0  0  0
   -4.1915   -1.3121   -0.2352 C   0  0  0  0  0  0  0  0  0  0  0  0
   -5.2291   -0.3594    0.3517 C   0  0  0  0  0  0  0  0  0  0  0  0
   -4.5013    0.9621    0.5618 C   0  0  0  0  0  0  0  0  0  0  0  0
   -3.2987    0.8854   -0.2522 N   0  0  0  0  0  0  0  0  0  0  0  0
   -2.3422    1.9615   -0.3151 C   0  0  0  0  0  0  0  0  0  0  0  0
   -2.6029    3.0605    0.2452 O   0  0  0  0  0  0  0  0  0  0  0  0
   -1.0105    1.7928   -0.9918 C   0  0  0  0  0  0  0  0  0  0  0  0
   -0.1252    0.9555   -0.1844 N   0  0  0  0  0  0  0  0  0  0  0  0
    1.1660    0.5537   -0.6616 C   0  0  0  0  0  0  0  0  0  0  0  0
    1.5921    0.9887   -1.7661 O   0  0  0  0  0  0  0  0  0  0  0  0
    1.9787   -0.4118    0.1131 C   0  0  0  0  0  0  0  0  0  0  0  0
    1.3489   -1.5663    0.6051 C   0  0  0  0  0  0  0  0  0  0  0  0
    2.0580   -2.5132    1.2704 N   0  0  0  0  0  0  0  0  0  0  0  0
    3.3896   -2.3888    1.4945 C   0  0  0  0  0  0  0  0  0  0  0  0
    4.0759   -1.2549    1.0454 C   0  0  0  0  0  0  0  0  0  0  0  0
    5.4507   -1.1161    1.2905 C   0  0  0  0  0  0  0  0  0  0  0  0
    6.1265    0.0288    0.8673 C   0  0  0  0  0  0  0  0  0  0  0  0
    5.4359    1.0453    0.2074 C   0  0  0  0  0  0  0  0  0  0  0  0
    4.0672    0.9199   -0.0458 C   0  0  0  0  0  0  0  0  0  0  0  0
    3.3672   -0.2405    0.3510 C   0  0  0  0  0  0  0  0  0  0  0  0
   -2.1181   -0.8301   -0.6793 H   0  0  0  0  0  0  0  0  0  0  0  0
   -4.6557   -2.0299   -0.9482 H   0  0  0  0  0  0  0  0  0  0  0  0
   -3.7256   -1.8920    0.5921 H   0  0  0  0  0  0  0  0  0  0  0  0
   -5.6458   -0.7507    1.3050 H   0  0  0  0  0  0  0  0  0  0  0  0
   -6.0556   -0.2181   -0.3792 H   0  0  0  0  0  0  0  0  0  0  0  0
   -4.2208    1.0835    1.6308 H   0  0  0  0  0  0  0  0  0  0  0  0
   -5.1355    1.8155    0.2373 H   0  0  0  0  0  0  0  0  0  0  0  0
   -0.5359    2.7865   -1.1436 H   0  0  0  0  0  0  0  0  0  0  0  0
   -1.1558    1.3316   -1.9905 H   0  0  0  0  0  0  0  0  0  0  0  0
   -0.4304    0.6427    0.7659 H   0  0  0  0  0  0  0  0  0  0  0  0
    0.2918   -1.7294    0.4366 H   0  0  0  0  0  0  0  0  0  0  0  0
    3.9092   -3.1739    2.0299 H   0  0  0  0  0  0  0  0  0  0  0  0
    6.0000   -1.8894    1.8144 H   0  0  0  0  0  0  0  0  0  0  0  0
    7.1862    0.1335    1.0610 H   0  0  0  0  0  0  0  0  0  0  0  0
    5.9621    1.9386   -0.1040 H   0  0  0  0  0  0  0  0  0  0  0  0
    3.5686    1.7456   -0.5326 H   0  0  0  0  0  0  0  0  0  0  0  0
  1  2  3  0
  2  3  1  0
  3  4  1  0
  4  5  1  0
  5  6  1  0
  6  7  1  0
  7  8  1  0
  8  9  2  0
  8 10  1  0
 10 11  1  0
 11 12  1  0
 12 13  2  0
 12 14  1  0
 14 15  2  0
 15 16  1  0
 16 17  2  0
 17 18  1  0
 18 19  2  0
 19 20  1  0
 20 21  2  0
 21 22  1  0
 22 23  2  0
  7  3  1  0
 23 14  1  0
 23 18  1  0
  3 24  1  6
  4 25  1  0
  4 26  1  0
  5 27  1  0
  5 28  1  0
  6 29  1  0
  6 30  1  0
 10 31  1  0
 10 32  1  0
 11 33  1  0
 15 34  1  0
 17 35  1  0
 19 36  1  0
 20 37  1  0
 21 38  1  0
 22 39  1  0
M  END
$$$$
