
     RDKit          3D

 47 51  0  0  0  0  0  0  0  0999 V2000
    0.5123    2.6603   -0.6275 N   0  0  0  0  0  0  0  0  0  0  0  0
    0.7345    1.7344    0.4877 C   0  0  1  0  0  0  0  0  0  0  0  0
   -0.5490    1.6365    1.3578 C   0  0  0  0  0  0  0  0  0  0  0  0
   -1.3549    0.3412    1.1415 C   0  0  0  0  0  0  0  0  0  0  0  0
   -1.9092    0.2820   -0.2354 N   0  0  0  0  0  0  0  0  0  0  0  0
   -2.5655   -1.0166   -0.5506 C   0  0  0  0  0  0  0  0  0  0  0  0
   -3.7351   -0.6499   -1.3683 C   0  0  0  0  0  0  0  0  0  0  0  0
   -4.9776   -1.2272   -1.4977 C   0  0  0  0  0  0  0  0  0  0  0  0
   -5.8790   -0.2244   -1.5643 N   0  0  0  0  0  0  0  0  0  0  0  0
   -5.2666    0.9403   -1.3913 N   0  0  0  0  0  0  0  0  0  0  0  0
   -3.9508    0.6688   -1.3203 C   0  0  0  0  0  0  0  0  0  0  0  0
   -2.9288    1.3370   -0.4944 C   0  0  0  0  0  0  0  0  0  0  0  0
   -0.4198   -0.8207    1.4092 C   0  0  0  0  0  0  0  0  0  0  0  0
   -0.8429   -1.9098    2.1901 C   0  0  0  0  0  0  0  0  0  0  0  0
   -0.0085   -3.0131    2.3713 C   0  0  0  0  0  0  0  0  0  0  0  0
    1.2454   -3.0470    1.7627 C   0  0  0  0  0  0  0  0  0  0  0  0
    1.6801   -1.9675    0.9905 C   0  0  0  0  0  0  0  0  0  0  0  0
    0.8739   -0.8180    0.8457 C   0  0  0  0  0  0  0  0  0  0  0  0
    1.2878    0.3599   -0.0301 C   0  0  2  0  0  0  0  0  0  0  0  0
    2.7935    0.4573   -0.2454 C   0  0  0  0  0  0  0  0  0  0  0  0
    3.3143    0.4537   -1.5528 C   0  0  0  0  0  0  0  0  0  0  0  0
    4.6916    0.5588   -1.7685 C   0  0  0  0  0  0  0  0  0  0  0  0
    5.1813    0.5519   -3.0328 F   0  0  0  0  0  0  0  0  0  0  0  0
    5.5637    0.6731   -0.6839 C   0  0  0  0  0  0  0  0  0  0  0  0
    5.0610    0.6845    0.6187 C   0  0  0  0  0  0  0  0  0  0  0  0
    3.6847    0.5808    0.8432 C   0  0  0  0  0  0  0  0  0  0  0  0
    3.2239    0.5885    2.1200 F   0  0  0  0  0  0  0  0  0  0  0  0
    1.4271    2.8439   -1.1003 H   0  0  0  0  0  0  0  0  0  0  0  0
   -0.1172    2.2163   -1.3337 H   0  0  0  0  0  0  0  0  0  0  0  0
    1.4979    2.2057    1.1463 H   0  0  0  0  0  0  0  0  0  0  0  0
   -0.2500    1.6685    2.4303 H   0  0  0  0  0  0  0  0  0  0  0  0
   -1.1929    2.5294    1.2065 H   0  0  0  0  0  0  0  0  0  0  0  0
   -2.1865    0.3261    1.8838 H   0  0  0  0  0  0  0  0  0  0  0  0
   -1.8759   -1.6677   -1.1276 H   0  0  0  0  0  0  0  0  0  0  0  0
   -2.9223   -1.5381    0.3651 H   0  0  0  0  0  0  0  0  0  0  0  0
   -5.2261   -2.2747   -1.3895 H   0  0  0  0  0  0  0  0  0  0  0  0
   -6.9156   -0.3378   -1.6093 H   0  0  0  0  0  0  0  0  0  0  0  0
   -2.4823    2.1831   -1.0550 H   0  0  0  0  0  0  0  0  0  0  0  0
   -3.4037    1.7041    0.4432 H   0  0  0  0  0  0  0  0  0  0  0  0
   -1.8261   -1.9124    2.6439 H   0  0  0  0  0  0  0  0  0  0  0  0
   -0.3431   -3.8522    2.9676 H   0  0  0  0  0  0  0  0  0  0  0  0
    1.8795   -3.9161    1.8818 H   0  0  0  0  0  0  0  0  0  0  0  0
    2.6454   -2.0398    0.5078 H   0  0  0  0  0  0  0  0  0  0  0  0
    0.8071    0.1474   -1.0109 H   0  0  0  0  0  0  0  0  0  0  0  0
    2.6541    0.3714   -2.4072 H   0  0  0  0  0  0  0  0  0  0  0  0
    6.6299    0.7542   -0.8517 H   0  0  0  0  0  0  0  0  0  0  0  0
    5.7403    0.7738    1.4567 H   0  0  0  0  0  0  0  0  0  0  0  0
  1  2  1  0
  2  3  1  0
  3  4  1  0
  4  5  1  0
  5  6  1  0
  6  7  1  0
  7  8  2  0
  8  9  1  0
  9 10  1  0
 10 11  2  0
 11 12  1  0
  4 13  1  0
 13 14  2  0
 14 15  1  0
 15 16  2  0
 16 17  1  0
 17 18  2  0
 18 19  1  0
 19 20  1  0
 20 21  2  0
 21 22  1  0
 22 23  1  0
 22 24  2  0
 24 25  1  0
 25 26  2  0
 26 27  1  0
 19  2  1  0
 26 20  1  0
 12  5  1  0
 18 13  1  0
 11  7  1  0
  1 28  1  0
  1 29  1  0
  2 30  1  1
  3 31  1  0
  3 32  1  0
  4 33  1  0
  6 34  1  0
  6 35  1  0
  8 36  1  0
  9 37  1  0
 12 38  1  0
 12 39  1  0
 14 40  1  0
 15 41  1  0
 16 42  1  0
 17 43  1  0
 19 44  1  6
 21 45  1  0
 24 46  1  0
 25 47  1  0
M  END
$$$$
