
     RDKit          3D

 38 40  0  0  0  0  0  0  0  0999 V2000
   -2.1651    0.1430   -2.8139 N   0  0  0  0  0  0  0  0  0  0  0  0
   -2.8435   -0.1282   -1.9165 C   0  0  0  0  0  0  0  0  0  0  0  0
   -3.7062   -0.4735   -0.7739 C   0  0  2  0  0  0  0  0  0  0  0  0
   -5.0710    0.2030   -0.9011 C   0  0  0  0  0  0  0  0  0  0  0  0
   -4.9953    1.4466   -0.0207 C   0  0  0  0  0  0  0  0  0  0  0  0
   -3.9050    1.1578    1.0026 C   0  0  0  0  0  0  0  0  0  0  0  0
   -3.1325    0.0516    0.4584 N   0  0  0  0  0  0  0  0  0  0  0  0
   -2.0071   -0.5145    1.1598 C   0  0  0  0  0  0  0  0  0  0  0  0
   -1.6381   -0.0014    2.2517 O   0  0  0  0  0  0  0  0  0  0  0  0
   -1.2969   -1.7478    0.6661 C   0  0  0  0  0  0  0  0  0  0  0  0
    0.1409   -1.6447    0.9090 N   0  0  0  0  0  0  0  0  0  0  0  0
    0.9765   -0.7414    0.1672 C   0  0  0  0  0  0  0  0  0  0  0  0
    0.4761   -0.0552   -0.7638 O   0  0  0  0  0  0  0  0  0  0  0  0
    2.4152   -0.6034    0.4851 C   0  0  0  0  0  0  0  0  0  0  0  0
    3.0806   -1.1371    1.5897 C   0  0  0  0  0  0  0  0  0  0  0  0
    4.3880   -0.7961    1.5692 N   0  0  0  0  0  0  0  0  0  0  0  0
    4.5624   -0.0511    0.4659 C   0  0  0  0  0  0  0  0  0  0  0  0
    5.7513    0.5276    0.0238 C   0  0  0  0  0  0  0  0  0  0  0  0
    5.7177    1.2731   -1.1672 C   0  0  0  0  0  0  0  0  0  0  0  0
    4.5105    1.4211   -1.8830 C   0  0  0  0  0  0  0  0  0  0  0  0
    3.3250    0.8266   -1.4142 C   0  0  0  0  0  0  0  0  0  0  0  0
    3.3841    0.0930   -0.2248 C   0  0  0  0  0  0  0  0  0  0  0  0
   -3.8332   -1.5760   -0.7122 H   0  0  0  0  0  0  0  0  0  0  0  0
   -5.3388    0.4627   -1.9498 H   0  0  0  0  0  0  0  0  0  0  0  0
   -5.8536   -0.4772   -0.4978 H   0  0  0  0  0  0  0  0  0  0  0  0
   -5.9702    1.6561    0.4706 H   0  0  0  0  0  0  0  0  0  0  0  0
   -4.7019    2.3214   -0.6419 H   0  0  0  0  0  0  0  0  0  0  0  0
   -3.2565    2.0490    1.1475 H   0  0  0  0  0  0  0  0  0  0  0  0
   -4.3564    0.8562    1.9729 H   0  0  0  0  0  0  0  0  0  0  0  0
   -1.4666   -1.9230   -0.4147 H   0  0  0  0  0  0  0  0  0  0  0  0
   -1.7016   -2.6247    1.2151 H   0  0  0  0  0  0  0  0  0  0  0  0
    0.5615   -2.2818    1.6207 H   0  0  0  0  0  0  0  0  0  0  0  0
    2.6378   -1.7312    2.3771 H   0  0  0  0  0  0  0  0  0  0  0  0
    5.1124   -1.0578    2.2743 H   0  0  0  0  0  0  0  0  0  0  0  0
    6.6727    0.4069    0.5788 H   0  0  0  0  0  0  0  0  0  0  0  0
    6.6234    1.7349   -1.5382 H   0  0  0  0  0  0  0  0  0  0  0  0
    4.4970    1.9952   -2.8003 H   0  0  0  0  0  0  0  0  0  0  0  0
    2.4063    0.9404   -1.9714 H   0  0  0  0  0  0  0  0  0  0  0  0
  1  2  3  0
  2  3  1  0
  3  4  1  0
  4  5  1  0
  5  6  1  0
  6  7  1  0
  7  8  1  0
  8  9  2  0
  8 10  1  0
 10 11  1  0
 11 12  1  0
 12 13  2  0
 12 14  1  0
 14 15  2  0
 15 16  1  0
 16 17  1  0
 17 18  2  0
 18 19  1  0
 19 20  2  0
 20 21  1  0
 21 22  2  0
  7  3  1  0
 22 14  1  0
 22 17  1  0
  3 23  1  1
  4 24  1  0
  4 25  1  0
  5 26  1  0
  5 27  1  0
  6 28  1  0
  6 29  1  0
 10 30  1  0
 10 31  1  0
 11 32  1  0
 15 33  1  0
 16 34  1  0
 18 35  1  0
 19 36  1  0
 20 37  1  0
 21 38  1  0
M  END
$$$$
