
     RDKit          3D

 48 50  0  0  0  0  0  0  0  0999 V2000
   -0.0063   -2.6572    3.0553 C   0  0  0  0  0  0  0  0  0  0  0  0
   -0.6504   -2.3602    1.8206 O   0  0  0  0  0  0  0  0  0  0  0  0
   -1.1194   -1.0933    1.4440 C   0  0  0  0  0  0  0  0  0  0  0  0
   -1.0534   -0.0044    2.3352 C   0  0  0  0  0  0  0  0  0  0  0  0
   -1.5348    1.2482    1.9635 C   0  0  0  0  0  0  0  0  0  0  0  0
   -2.0872    1.4397    0.7012 C   0  0  0  0  0  0  0  0  0  0  0  0
   -2.1713    0.3692   -0.2059 C   0  0  0  0  0  0  0  0  0  0  0  0
   -2.7203    0.5276   -1.4885 O   0  0  0  0  0  0  0  0  0  0  0  0
   -3.1718    1.7664   -2.0255 C   0  0  0  0  0  0  0  0  0  0  0  0
   -1.6864   -0.8998    0.1578 C   0  0  0  0  0  0  0  0  0  0  0  0
   -1.8171   -1.9247   -0.8001 O   0  0  0  0  0  0  0  0  0  0  0  0
   -1.0251   -3.1088   -0.9197 C   0  0  0  0  0  0  0  0  0  0  0  0
    0.4371   -2.7693   -1.2178 C   0  0  0  0  0  0  0  0  0  0  0  0
    0.5156   -1.9050   -2.4029 N   0  0  0  0  0  0  0  0  0  0  0  0
    1.8686   -1.3614   -2.6044 C   0  0  0  0  0  0  0  0  0  0  0  0
    2.0203    0.0297   -1.9674 C   0  0  0  0  0  0  0  0  0  0  0  0
    0.9483    1.0270   -2.4573 C   0  0  0  0  0  0  0  0  0  0  0  0
    1.0311    2.2454   -1.7140 O   0  0  0  0  0  0  0  0  0  0  0  0
    1.3040    2.2390   -0.3425 C   0  0  0  0  0  0  0  0  0  0  0  0
    1.1138    3.3885    0.4303 C   0  0  0  0  0  0  0  0  0  0  0  0
    1.3747    3.3537    1.8049 C   0  0  0  0  0  0  0  0  0  0  0  0
    1.8282    2.1721    2.4042 C   0  0  0  0  0  0  0  0  0  0  0  0
    2.0284    1.0243    1.6293 C   0  0  0  0  0  0  0  0  0  0  0  0
    1.7762    1.0617    0.2549 C   0  0  0  0  0  0  0  0  0  0  0  0
    1.9917   -0.0660   -0.5410 O   0  0  0  0  0  0  0  0  0  0  0  0
    0.9118   -2.0418    3.1642 H   0  0  0  0  0  0  0  0  0  0  0  0
   -0.6987   -2.4692    3.9027 H   0  0  0  0  0  0  0  0  0  0  0  0
    0.2817   -3.7282    3.0640 H   0  0  0  0  0  0  0  0  0  0  0  0
   -0.6283   -0.1140    3.3232 H   0  0  0  0  0  0  0  0  0  0  0  0
   -1.4729    2.0775    2.6566 H   0  0  0  0  0  0  0  0  0  0  0  0
   -2.4462    2.4254    0.4395 H   0  0  0  0  0  0  0  0  0  0  0  0
   -2.3365    2.4982   -2.0493 H   0  0  0  0  0  0  0  0  0  0  0  0
   -3.5299    1.6025   -3.0624 H   0  0  0  0  0  0  0  0  0  0  0  0
   -4.0122    2.1629   -1.4177 H   0  0  0  0  0  0  0  0  0  0  0  0
   -1.1197   -3.7536   -0.0240 H   0  0  0  0  0  0  0  0  0  0  0  0
   -1.4259   -3.7027   -1.7682 H   0  0  0  0  0  0  0  0  0  0  0  0
    1.0011   -3.7130   -1.3928 H   0  0  0  0  0  0  0  0  0  0  0  0
    0.8761   -2.2671   -0.3323 H   0  0  0  0  0  0  0  0  0  0  0  0
    0.2754   -2.4912   -3.2372 H   0  0  0  0  0  0  0  0  0  0  0  0
    2.0619   -1.2575   -3.6960 H   0  0  0  0  0  0  0  0  0  0  0  0
    2.6517   -2.0472   -2.2079 H   0  0  0  0  0  0  0  0  0  0  0  0
    3.0152    0.4325   -2.2599 H   0  0  0  0  0  0  0  0  0  0  0  0
    1.0890    1.2450   -3.5370 H   0  0  0  0  0  0  0  0  0  0  0  0
   -0.0662    0.6011   -2.3143 H   0  0  0  0  0  0  0  0  0  0  0  0
    0.7542    4.2999   -0.0296 H   0  0  0  0  0  0  0  0  0  0  0  0
    1.2200    4.2397    2.4067 H   0  0  0  0  0  0  0  0  0  0  0  0
    2.0227    2.1460    3.4685 H   0  0  0  0  0  0  0  0  0  0  0  0
    2.3811    0.1122    2.0932 H   0  0  0  0  0  0  0  0  0  0  0  0
  1  2  1  0
  2  3  1  0
  3  4  2  0
  4  5  1  0
  5  6  2  0
  6  7  1  0
  7  8  1  0
  8  9  1  0
  7 10  2  0
 10 11  1  0
 11 12  1  0
 12 13  1  0
 13 14  1  0
 14 15  1  0
 15 16  1  0
 16 17  1  0
 17 18  1  0
 18 19  1  0
 19 20  2  0
 20 21  1  0
 21 22  2  0
 22 23  1  0
 23 24  2  0
 24 25  1  0
 10  3  1  0
 25 16  1  0
 24 19  1  0
  1 26  1  0
  1 27  1  0
  1 28  1  0
  4 29  1  0
  5 30  1  0
  6 31  1  0
  9 32  1  0
  9 33  1  0
  9 34  1  0
 12 35  1  0
 12 36  1  0
 13 37  1  0
 13 38  1  0
 14 39  1  0
 15 40  1  0
 15 41  1  0
 16 42  1  0
 17 43  1  0
 17 44  1  0
 20 45  1  0
 21 46  1  0
 22 47  1  0
 23 48  1  0
M  END
$$$$
