
     RDKit          3D

 59 60  0  0  0  0  0  0  0  0999 V2000
    2.0381   -3.9855    0.2280 C   0  0  0  0  0  0  0  0  0  0  0  0
    1.7059   -2.6178   -0.1849 N   0  0  0  0  0  0  0  0  0  0  0  0
    1.5518   -2.3043   -1.6101 C   0  0  0  0  0  0  0  0  0  0  0  0
    1.5266   -1.6063    0.8336 C   0  0  0  0  0  0  0  0  0  0  0  0
    1.6131   -1.9359    2.0496 O   0  0  0  0  0  0  0  0  0  0  0  0
    1.1751   -0.1669    0.4890 C   0  0  1  0  0  0  0  0  0  0  0  0
   -0.3331   -0.0125    0.4081 C   0  0  0  0  0  0  0  0  0  0  0  0
   -1.1527   -0.3076    1.5122 C   0  0  0  0  0  0  0  0  0  0  0  0
   -2.5382   -0.1461    1.4317 C   0  0  0  0  0  0  0  0  0  0  0  0
   -3.1359    0.3184    0.2474 C   0  0  0  0  0  0  0  0  0  0  0  0
   -4.6088    0.4896    0.1612 C   0  0  0  0  0  0  0  0  0  0  0  0
   -5.3049    0.1222   -1.0061 C   0  0  0  0  0  0  0  0  0  0  0  0
   -6.6915    0.2839   -1.0846 C   0  0  0  0  0  0  0  0  0  0  0  0
   -7.3982    0.8138   -0.0024 C   0  0  0  0  0  0  0  0  0  0  0  0
   -8.7427    0.9701   -0.0813 F   0  0  0  0  0  0  0  0  0  0  0  0
   -6.7188    1.1827    1.1611 C   0  0  0  0  0  0  0  0  0  0  0  0
   -5.3324    1.0222    1.2452 C   0  0  0  0  0  0  0  0  0  0  0  0
   -2.3158    0.6209   -0.8533 C   0  0  0  0  0  0  0  0  0  0  0  0
   -0.9302    0.4608   -0.7723 C   0  0  0  0  0  0  0  0  0  0  0  0
    1.7969    0.8539    1.4885 C   0  0  2  0  0  0  0  0  0  0  0  0
    1.4599    2.2387    1.1410 N   0  0  0  0  0  0  0  0  0  0  0  0
    3.2977    0.7085    1.5697 C   0  0  0  0  0  0  0  0  0  0  0  0
    3.8163    0.2633    2.6282 O   0  0  0  0  0  0  0  0  0  0  0  0
    4.1480    1.0402    0.4683 N   0  0  0  0  0  0  0  0  0  0  0  0
    5.5929    0.9689    0.1880 C   0  0  0  0  0  0  0  0  0  0  0  0
    5.5197    1.5432   -1.1871 C   0  0  0  0  0  0  0  0  0  0  0  0
    4.0590    1.6117   -0.8895 C   0  0  0  0  0  0  0  0  0  0  0  0
    0.7558    0.0357   -1.5446 O   0  0  0  0  0  0  0  0  0  0  0  0
    0.4710    0.0198   -0.3172 C   0  0  0  0  0  0  0  0  0  0  0  0
    1.4883   -0.0531    0.6296 O   0  0  0  0  0  0  0  0  0  0  0  0
   -0.9583    0.0190    0.1189 C   0  0  0  0  0  0  0  0  0  0  0  0
   -1.4529   -1.2704    0.0665 F   0  0  0  0  0  0  0  0  0  0  0  0
   -1.7074    0.8296   -0.7147 F   0  0  0  0  0  0  0  0  0  0  0  0
   -1.0575    0.4921    1.4146 F   0  0  0  0  0  0  0  0  0  0  0  0
    1.2244   -4.3923    0.8650 H   0  0  0  0  0  0  0  0  0  0  0  0
    2.9871   -3.9818    0.8051 H   0  0  0  0  0  0  0  0  0  0  0  0
    2.1685   -4.6620   -0.6425 H   0  0  0  0  0  0  0  0  0  0  0  0
    1.6372   -3.2123   -2.2428 H   0  0  0  0  0  0  0  0  0  0  0  0
    0.5515   -1.8612   -1.7945 H   0  0  0  0  0  0  0  0  0  0  0  0
    2.3441   -1.5948   -1.9283 H   0  0  0  0  0  0  0  0  0  0  0  0
    1.6104    0.0646   -0.5018 H   0  0  0  0  0  0  0  0  0  0  0  0
   -0.7211   -0.6648    2.4381 H   0  0  0  0  0  0  0  0  0  0  0  0
   -3.1438   -0.4004    2.2924 H   0  0  0  0  0  0  0  0  0  0  0  0
   -4.7800   -0.3063   -1.8506 H   0  0  0  0  0  0  0  0  0  0  0  0
   -7.2180   -0.0056   -1.9851 H   0  0  0  0  0  0  0  0  0  0  0  0
   -7.2654    1.5970    1.9985 H   0  0  0  0  0  0  0  0  0  0  0  0
   -4.8245    1.3309    2.1503 H   0  0  0  0  0  0  0  0  0  0  0  0
   -2.7441    1.0009   -1.7723 H   0  0  0  0  0  0  0  0  0  0  0  0
   -0.3229    0.7114   -1.6333 H   0  0  0  0  0  0  0  0  0  0  0  0
    1.3859    0.6505    2.5041 H   0  0  0  0  0  0  0  0  0  0  0  0
    0.4700    2.4256    1.4222 H   0  0  0  0  0  0  0  0  0  0  0  0
    1.5110    2.3715    0.1055 H   0  0  0  0  0  0  0  0  0  0  0  0
    5.9463   -0.0864    0.1930 H   0  0  0  0  0  0  0  0  0  0  0  0
    6.1662    1.6134    0.8911 H   0  0  0  0  0  0  0  0  0  0  0  0
    5.7717    0.8086   -1.9828 H   0  0  0  0  0  0  0  0  0  0  0  0
    5.9985    2.5430   -1.2710 H   0  0  0  0  0  0  0  0  0  0  0  0
    3.6857    2.6590   -0.8606 H   0  0  0  0  0  0  0  0  0  0  0  0
    3.4632    0.9613   -1.5661 H   0  0  0  0  0  0  0  0  0  0  0  0
    2.4609   -0.0726    0.3468 H   0  0  0  0  0  0  0  0  0  0  0  0
  1  2  1  0
  2  3  1  0
  2  4  1  0
  4  5  2  0
  4  6  1  0
  6  7  1  0
  7  8  2  0
  8  9  1  0
  9 10  2  0
 10 11  1  0
 11 12  2  0
 12 13  1  0
 13 14  2  0
 14 15  1  0
 14 16  1  0
 16 17  2  0
 10 18  1  0
 18 19  2  0
  6 20  1  0
 20 21  1  0
 20 22  1  0
 22 23  2  0
 22 24  1  0
 24 25  1  0
 25 26  1  0
 26 27  1  0
 28 29  2  0
 29 30  1  0
 29 31  1  0
 31 32  1  0
 31 33  1  0
 31 34  1  0
 19  7  1  0
 27 24  1  0
 17 11  1  0
  1 35  1  0
  1 36  1  0
  1 37  1  0
  3 38  1  0
  3 39  1  0
  3 40  1  0
  6 41  1  6
  8 42  1  0
  9 43  1  0
 12 44  1  0
 13 45  1  0
 16 46  1  0
 17 47  1  0
 18 48  1  0
 19 49  1  0
 20 50  1  1
 21 51  1  0
 21 52  1  0
 25 53  1  0
 25 54  1  0
 26 55  1  0
 26 56  1  0
 27 57  1  0
 27 58  1  0
 30 59  1  0
M  END
$$$$
