
     RDKit          3D

 85 88  0  0  0  0  0  0  0  0999 V2000
   -8.7784   -4.7929   -0.8562 C   0  0  0  0  0  0  0  0  0  0  0  0
   -7.6016   -5.2996   -0.0377 C   0  0  0  0  0  0  0  0  0  0  0  0
   -7.4570   -4.5054    1.1353 O   0  0  0  0  0  0  0  0  0  0  0  0
   -6.4534   -4.7355    2.0804 C   0  0  0  0  0  0  0  0  0  0  0  0
   -5.6204   -5.6688    1.9206 O   0  0  0  0  0  0  0  0  0  0  0  0
   -6.3486   -3.8441    3.2764 C   0  0  0  0  0  0  0  0  0  0  0  0
   -5.2193   -2.9287    3.1296 N   0  0  0  0  0  0  0  0  0  0  0  0
   -5.2324   -1.8370    2.1929 C   0  0  0  0  0  0  0  0  0  0  0  0
   -6.1951   -1.7213    1.3852 O   0  0  0  0  0  0  0  0  0  0  0  0
   -4.1270   -0.8494    2.1463 C   0  0  0  0  0  0  0  0  0  0  0  0
   -3.3383   -0.5823    3.2794 C   0  0  0  0  0  0  0  0  0  0  0  0
   -2.3038    0.3560    3.2166 C   0  0  0  0  0  0  0  0  0  0  0  0
   -2.0448    1.0571    2.0345 C   0  0  0  0  0  0  0  0  0  0  0  0
   -0.9887    1.9801    2.0340 O   0  0  0  0  0  0  0  0  0  0  0  0
   -0.5009    2.9147    0.6703 P   0  0  0  0  0  0  0  0  0  0  0  0
   -1.6297    3.8593    0.3254 O   0  0  0  0  0  0  0  0  0  0  0  0
   -0.2164    1.8945   -0.6904 O   0  0  0  0  0  0  0  0  0  0  0  0
    0.6945    0.8311   -0.7290 C   0  0  0  0  0  0  0  0  0  0  0  0
    1.2263    0.2367    0.4279 C   0  0  0  0  0  0  0  0  0  0  0  0
    2.1395   -0.8155    0.3249 C   0  0  0  0  0  0  0  0  0  0  0  0
    2.5430   -1.2915   -0.9336 C   0  0  0  0  0  0  0  0  0  0  0  0
    3.5143   -2.4059   -1.0249 C   0  0  0  0  0  0  0  0  0  0  0  0
    3.5909   -3.2347   -0.0770 O   0  0  0  0  0  0  0  0  0  0  0  0
    4.3826   -2.5442   -2.1626 N   0  0  0  0  0  0  0  0  0  0  0  0
    5.3264   -3.6514   -2.2929 C   0  0  0  0  0  0  0  0  0  0  0  0
    6.4803   -3.4557   -1.3622 C   0  0  0  0  0  0  0  0  0  0  0  0
    7.4479   -2.7240   -1.7091 O   0  0  0  0  0  0  0  0  0  0  0  0
    6.4466   -4.0410   -0.0935 O   0  0  0  0  0  0  0  0  0  0  0  0
    7.4787   -3.8525    0.8687 C   0  0  0  0  0  0  0  0  0  0  0  0
    7.0957   -4.5461    2.1659 C   0  0  0  0  0  0  0  0  0  0  0  0
    1.9931   -0.7086   -2.0877 C   0  0  0  0  0  0  0  0  0  0  0  0
    1.0754    0.3401   -1.9815 C   0  0  0  0  0  0  0  0  0  0  0  0
    0.9992    3.9223    1.0251 C   0  0  0  0  0  0  0  0  0  0  0  0
    1.7387    3.4645    2.2881 C   0  0  0  0  0  0  0  0  0  0  0  0
    3.0707    2.8716    1.8341 C   0  0  0  0  0  0  0  0  0  0  0  0
    3.2208    3.2046    0.3572 C   0  0  0  0  0  0  0  0  0  0  0  0
    1.9672    3.8090   -0.0617 N   0  0  0  0  0  0  0  0  0  0  0  0
    1.7930    4.2969   -1.4105 C   0  0  0  0  0  0  0  0  0  0  0  0
    2.6303    3.9618   -2.2936 O   0  0  0  0  0  0  0  0  0  0  0  0
    0.6459    5.2052   -1.8092 C   0  0  0  0  0  0  0  0  0  0  0  0
   -0.2470    4.5752   -2.8681 C   0  0  0  0  0  0  0  0  0  0  0  0
   -0.8333    5.7609   -3.6069 C   0  0  0  0  0  0  0  0  0  0  0  0
    0.0389    6.9533   -3.2230 C   0  0  0  0  0  0  0  0  0  0  0  0
    1.1222    6.4743   -2.3624 N   0  0  0  0  0  0  0  0  0  0  0  0
   -2.8449    0.8071    0.9035 C   0  0  0  0  0  0  0  0  0  0  0  0
   -3.8725   -0.1382    0.9605 C   0  0  0  0  0  0  0  0  0  0  0  0
   -9.7104   -4.8497   -0.2542 H   0  0  0  0  0  0  0  0  0  0  0  0
   -8.8980   -5.4186   -1.7658 H   0  0  0  0  0  0  0  0  0  0  0  0
   -8.6042   -3.7389   -1.1606 H   0  0  0  0  0  0  0  0  0  0  0  0
   -7.7825   -6.3589    0.2472 H   0  0  0  0  0  0  0  0  0  0  0  0
   -6.6748   -5.2387   -0.6496 H   0  0  0  0  0  0  0  0  0  0  0  0
   -6.2006   -4.4729    4.1809 H   0  0  0  0  0  0  0  0  0  0  0  0
   -7.2884   -3.2663    3.4127 H   0  0  0  0  0  0  0  0  0  0  0  0
   -4.3698   -3.1094    3.7096 H   0  0  0  0  0  0  0  0  0  0  0  0
   -3.5232   -1.0824    4.2200 H   0  0  0  0  0  0  0  0  0  0  0  0
   -1.6997    0.5416    4.0955 H   0  0  0  0  0  0  0  0  0  0  0  0
    0.9465    0.5735    1.4125 H   0  0  0  0  0  0  0  0  0  0  0  0
    2.5418   -1.2485    1.2322 H   0  0  0  0  0  0  0  0  0  0  0  0
    4.3973   -1.8050   -2.8997 H   0  0  0  0  0  0  0  0  0  0  0  0
    5.7037   -3.6947   -3.3378 H   0  0  0  0  0  0  0  0  0  0  0  0
    4.8154   -4.6148   -2.0779 H   0  0  0  0  0  0  0  0  0  0  0  0
    7.6188   -2.7669    1.0629 H   0  0  0  0  0  0  0  0  0  0  0  0
    8.4304   -4.2809    0.4868 H   0  0  0  0  0  0  0  0  0  0  0  0
    6.1459   -4.1220    2.5562 H   0  0  0  0  0  0  0  0  0  0  0  0
    7.8958   -4.3967    2.9219 H   0  0  0  0  0  0  0  0  0  0  0  0
    6.9645   -5.6349    1.9883 H   0  0  0  0  0  0  0  0  0  0  0  0
    2.2498   -1.0734   -3.0726 H   0  0  0  0  0  0  0  0  0  0  0  0
    0.6626    0.7808   -2.8800 H   0  0  0  0  0  0  0  0  0  0  0  0
    0.7018    4.9843    1.1605 H   0  0  0  0  0  0  0  0  0  0  0  0
    1.9372    4.3474    2.9358 H   0  0  0  0  0  0  0  0  0  0  0  0
    1.1754    2.7276    2.8967 H   0  0  0  0  0  0  0  0  0  0  0  0
    3.9124    3.3008    2.4203 H   0  0  0  0  0  0  0  0  0  0  0  0
    3.0701    1.7712    1.9803 H   0  0  0  0  0  0  0  0  0  0  0  0
    4.0532    3.9263    0.2073 H   0  0  0  0  0  0  0  0  0  0  0  0
    3.4167    2.2831   -0.2324 H   0  0  0  0  0  0  0  0  0  0  0  0
    0.0174    5.4477   -0.9300 H   0  0  0  0  0  0  0  0  0  0  0  0
   -1.0422    3.9469   -2.4127 H   0  0  0  0  0  0  0  0  0  0  0  0
    0.3462    3.9571   -3.5790 H   0  0  0  0  0  0  0  0  0  0  0  0
   -1.8833    5.9354   -3.2843 H   0  0  0  0  0  0  0  0  0  0  0  0
   -0.8160    5.5894   -4.7059 H   0  0  0  0  0  0  0  0  0  0  0  0
    0.4473    7.4500   -4.1309 H   0  0  0  0  0  0  0  0  0  0  0  0
   -0.5651    7.6991   -2.6629 H   0  0  0  0  0  0  0  0  0  0  0  0
    1.9495    6.2982   -2.9814 H   0  0  0  0  0  0  0  0  0  0  0  0
   -2.6854    1.3307   -0.0272 H   0  0  0  0  0  0  0  0  0  0  0  0
   -4.4651   -0.3196    0.0719 H   0  0  0  0  0  0  0  0  0  0  0  0
  1  2  1  0
  2  3  1  0
  3  4  1  0
  4  5  2  0
  4  6  1  0
  6  7  1  0
  7  8  1  0
  8  9  2  0
  8 10  1  0
 10 11  2  0
 11 12  1  0
 12 13  2  0
 13 14  1  0
 14 15  1  0
 15 16  2  0
 15 17  1  0
 17 18  1  0
 18 19  2  0
 19 20  1  0
 20 21  2  0
 21 22  1  0
 22 23  2  0
 22 24  1  0
 24 25  1  0
 25 26  1  0
 26 27  2  0
 26 28  1  0
 28 29  1  0
 29 30  1  0
 21 31  1  0
 31 32  2  0
 15 33  1  0
 33 34  1  0
 34 35  1  0
 35 36  1  0
 36 37  1  0
 37 38  1  0
 38 39  2  0
 38 40  1  0
 40 41  1  0
 41 42  1  0
 42 43  1  0
 43 44  1  0
 13 45  1  0
 45 46  2  0
 46 10  1  0
 32 18  1  0
 37 33  1  0
 44 40  1  0
  1 47  1  0
  1 48  1  0
  1 49  1  0
  2 50  1  0
  2 51  1  0
  6 52  1  0
  6 53  1  0
  7 54  1  0
 11 55  1  0
 12 56  1  0
 19 57  1  0
 20 58  1  0
 24 59  1  0
 25 60  1  0
 25 61  1  0
 29 62  1  0
 29 63  1  0
 30 64  1  0
 30 65  1  0
 30 66  1  0
 31 67  1  0
 32 68  1  0
 33 69  1  0
 34 70  1  0
 34 71  1  0
 35 72  1  0
 35 73  1  0
 36 74  1  0
 36 75  1  0
 40 76  1  0
 41 77  1  0
 41 78  1  0
 42 79  1  0
 42 80  1  0
 43 81  1  0
 43 82  1  0
 44 83  1  0
 45 84  1  0
 46 85  1  0
M  END
$$$$
