
     RDKit          3D

 52 54  0  0  0  0  0  0  0  0999 V2000
   -1.4726   -0.6399    2.1206 N   0  0  0  0  0  0  0  0  0  0  0  0
   -1.5632    0.8161    1.9774 C   0  0  1  0  0  0  0  0  0  0  0  0
   -0.7436    1.3644    0.7829 C   0  0  0  0  0  0  0  0  0  0  0  0
    0.7835    1.2656    0.9820 C   0  0  0  0  0  0  0  0  0  0  0  0
    1.3809   -0.0222    0.3900 C   0  0  0  0  0  0  0  0  0  0  0  0
    2.9054   -0.0646    0.5416 C   0  0  0  0  0  0  0  0  0  0  0  0
    3.5336    0.9899   -0.2670 N   0  0  0  0  0  0  0  0  0  0  0  0
    4.9654    1.1351    0.0361 C   0  0  0  0  0  0  0  0  0  0  0  0
    5.7708   -0.0503   -0.4408 C   0  0  0  0  0  0  0  0  0  0  0  0
    6.1740   -1.0474    0.4635 C   0  0  0  0  0  0  0  0  0  0  0  0
    6.8988   -2.1552    0.0129 C   0  0  0  0  0  0  0  0  0  0  0  0
    7.2221   -2.2773   -1.3412 C   0  0  0  0  0  0  0  0  0  0  0  0
    6.8194   -1.2927   -2.2477 C   0  0  0  0  0  0  0  0  0  0  0  0
    6.0942   -0.1835   -1.8014 C   0  0  0  0  0  0  0  0  0  0  0  0
   -3.0096    1.2555    1.8872 C   0  0  0  0  0  0  0  0  0  0  0  0
   -3.4069    2.1445    2.6893 O   0  0  0  0  0  0  0  0  0  0  0  0
   -3.9282    0.7586    0.8921 N   0  0  0  0  0  0  0  0  0  0  0  0
   -3.7653   -0.4650    0.0996 C   0  0  0  0  0  0  0  0  0  0  0  0
   -5.0147   -0.5237   -0.6951 C   0  0  0  0  0  0  0  0  0  0  0  0
   -5.3883   -1.4855   -1.6355 C   0  0  0  0  0  0  0  0  0  0  0  0
   -6.6300   -1.3489   -2.2772 C   0  0  0  0  0  0  0  0  0  0  0  0
   -7.4713   -0.2621   -1.9700 C   0  0  0  0  0  0  0  0  0  0  0  0
   -7.0746    0.6928   -1.0198 C   0  0  0  0  0  0  0  0  0  0  0  0
   -5.8358    0.5367   -0.3955 C   0  0  0  0  0  0  0  0  0  0  0  0
   -5.2160    1.4082    0.6295 C   0  0  0  0  0  0  0  0  0  0  0  0
   -0.6186   -0.8700    2.6787 H   0  0  0  0  0  0  0  0  0  0  0  0
   -1.3566   -1.0937    1.1868 H   0  0  0  0  0  0  0  0  0  0  0  0
   -1.1496    1.2777    2.9045 H   0  0  0  0  0  0  0  0  0  0  0  0
   -0.9918    2.4437    0.6715 H   0  0  0  0  0  0  0  0  0  0  0  0
   -1.0437    0.8789   -0.1684 H   0  0  0  0  0  0  0  0  0  0  0  0
    1.0451    1.3455    2.0597 H   0  0  0  0  0  0  0  0  0  0  0  0
    1.2508    2.1344    0.4685 H   0  0  0  0  0  0  0  0  0  0  0  0
    0.9635   -0.9070    0.9101 H   0  0  0  0  0  0  0  0  0  0  0  0
    1.1173   -0.1027   -0.6874 H   0  0  0  0  0  0  0  0  0  0  0  0
    3.2642   -1.0639    0.2084 H   0  0  0  0  0  0  0  0  0  0  0  0
    3.1646    0.0576    1.6171 H   0  0  0  0  0  0  0  0  0  0  0  0
    3.4177    0.7564   -1.2815 H   0  0  0  0  0  0  0  0  0  0  0  0
    5.1139    1.3040    1.1259 H   0  0  0  0  0  0  0  0  0  0  0  0
    5.3416    2.0513   -0.4681 H   0  0  0  0  0  0  0  0  0  0  0  0
    5.9237   -0.9691    1.5142 H   0  0  0  0  0  0  0  0  0  0  0  0
    7.2076   -2.9203    0.7134 H   0  0  0  0  0  0  0  0  0  0  0  0
    7.7825   -3.1358   -1.6884 H   0  0  0  0  0  0  0  0  0  0  0  0
    7.0675   -1.3899   -3.2967 H   0  0  0  0  0  0  0  0  0  0  0  0
    5.7835    0.5702   -2.5143 H   0  0  0  0  0  0  0  0  0  0  0  0
   -3.7015   -1.3536    0.7623 H   0  0  0  0  0  0  0  0  0  0  0  0
   -2.8925   -0.3894   -0.5789 H   0  0  0  0  0  0  0  0  0  0  0  0
   -4.7362   -2.3182   -1.8655 H   0  0  0  0  0  0  0  0  0  0  0  0
   -6.9414   -2.0818   -3.0101 H   0  0  0  0  0  0  0  0  0  0  0  0
   -8.4271   -0.1625   -2.4676 H   0  0  0  0  0  0  0  0  0  0  0  0
   -7.7157    1.5305   -0.7775 H   0  0  0  0  0  0  0  0  0  0  0  0
   -5.8384    1.4267    1.5497 H   0  0  0  0  0  0  0  0  0  0  0  0
   -5.0584    2.4321    0.2286 H   0  0  0  0  0  0  0  0  0  0  0  0
  1  2  1  0
  2  3  1  0
  3  4  1  0
  4  5  1  0
  5  6  1  0
  6  7  1  0
  7  8  1  0
  8  9  1  0
  9 10  2  0
 10 11  1  0
 11 12  2  0
 12 13  1  0
 13 14  2  0
  2 15  1  0
 15 16  2  0
 15 17  1  0
 17 18  1  0
 18 19  1  0
 19 20  2  0
 20 21  1  0
 21 22  2  0
 22 23  1  0
 23 24  2  0
 24 25  1  0
 14  9  1  0
 25 17  1  0
 24 19  1  0
  1 26  1  0
  1 27  1  0
  2 28  1  1
  3 29  1  0
  3 30  1  0
  4 31  1  0
  4 32  1  0
  5 33  1  0
  5 34  1  0
  6 35  1  0
  6 36  1  0
  7 37  1  0
  8 38  1  0
  8 39  1  0
 10 40  1  0
 11 41  1  0
 12 42  1  0
 13 43  1  0
 14 44  1  0
 18 45  1  0
 18 46  1  0
 20 47  1  0
 21 48  1  0
 22 49  1  0
 23 50  1  0
 25 51  1  0
 25 52  1  0
M  END
$$$$
