
     RDKit          3D

 65 66  0  0  0  0  0  0  0  0999 V2000
   -3.8866    3.1100   -3.5389 C   0  0  0  0  0  0  0  0  0  0  0  0
   -3.2871    3.1050   -2.1262 C   0  0  0  0  0  0  0  0  0  0  0  0
   -2.6493    4.4702   -1.8278 C   0  0  0  0  0  0  0  0  0  0  0  0
   -2.2749    1.9387   -1.9939 C   0  0  0  0  0  0  0  0  0  0  0  0
   -1.5620    1.8068   -0.6201 C   0  0  2  0  0  0  0  0  0  0  0  0
   -0.5183    0.7229   -0.7153 C   0  0  0  0  0  0  0  0  0  0  0  0
    0.7265    0.8298   -0.2122 N   0  0  0  0  0  0  0  0  0  0  0  0
    1.2473   -0.3795   -0.5147 C   0  0  0  0  0  0  0  0  0  0  0  0
    2.6345   -0.7786   -0.1730 C   0  0  0  0  0  0  0  0  0  0  0  0
    3.5812    0.2299    0.0849 C   0  0  0  0  0  0  0  0  0  0  0  0
    4.9025   -0.0928    0.3995 C   0  0  0  0  0  0  0  0  0  0  0  0
    5.3047   -1.4298    0.4635 C   0  0  0  0  0  0  0  0  0  0  0  0
    6.9663   -1.8367    0.8793 S   0  0  0  0  0  0  0  0  0  0  0  0
    7.1012   -2.0376    2.6408 C   0  0  0  0  0  0  0  0  0  0  0  0
    7.3636   -3.1145    0.1949 O   0  0  0  0  0  0  0  0  0  0  0  0
    7.8892   -0.7401    0.4265 O   0  0  0  0  0  0  0  0  0  0  0  0
    4.3700   -2.4440    0.2303 C   0  0  0  0  0  0  0  0  0  0  0  0
    3.0413   -2.1330   -0.0859 C   0  0  0  0  0  0  0  0  0  0  0  0
    1.9266   -3.4808   -0.2963 Cl  0  0  0  0  0  0  0  0  0  0  0  0
    0.3685   -1.1602   -1.1745 N   0  0  0  0  0  0  0  0  0  0  0  0
   -0.7095   -0.4460   -1.2761 O   0  0  0  0  0  0  0  0  0  0  0  0
   -2.5413    1.5709    0.5735 C   0  0  2  0  0  0  0  0  0  0  0  0
   -1.8804    1.6997    1.8781 N   0  0  0  0  0  0  0  0  0  0  0  0
   -3.3203    0.2717    0.4601 C   0  0  0  0  0  0  0  0  0  0  0  0
   -4.4760    0.3242   -0.0430 O   0  0  0  0  0  0  0  0  0  0  0  0
   -2.7756   -1.0193    0.8050 N   0  0  0  0  0  0  0  0  0  0  0  0
   -1.8059   -1.2795    1.8583 C   0  0  0  0  0  0  0  0  0  0  0  0
   -1.7904   -2.7912    2.0429 C   0  0  0  0  0  0  0  0  0  0  0  0
   -2.4359   -3.3684    0.7873 C   0  0  2  0  0  0  0  0  0  0  0  0
   -1.4537   -3.7195   -0.1243 F   0  0  0  0  0  0  0  0  0  0  0  0
   -3.2907   -2.2450    0.2173 C   0  0  0  0  0  0  0  0  0  0  0  0
    0.7242   -0.0610   -1.5589 O   0  0  0  0  0  0  0  0  0  0  0  0
    0.4647   -0.0148   -0.3267 C   0  0  0  0  0  0  0  0  0  0  0  0
    1.4972   -0.0971    0.6028 O   0  0  0  0  0  0  0  0  0  0  0  0
   -0.9537    0.0682    0.1363 C   0  0  0  0  0  0  0  0  0  0  0  0
   -1.5067   -1.1983    0.1489 F   0  0  0  0  0  0  0  0  0  0  0  0
   -1.6831    0.8763   -0.7171 F   0  0  0  0  0  0  0  0  0  0  0  0
   -1.0043    0.5996    1.4120 F   0  0  0  0  0  0  0  0  0  0  0  0
   -4.6575    3.9052   -3.6278 H   0  0  0  0  0  0  0  0  0  0  0  0
   -4.3757    2.1354   -3.7525 H   0  0  0  0  0  0  0  0  0  0  0  0
   -3.0973    3.2898   -4.3004 H   0  0  0  0  0  0  0  0  0  0  0  0
   -4.1324    2.9480   -1.4241 H   0  0  0  0  0  0  0  0  0  0  0  0
   -1.7308    4.6156   -2.4359 H   0  0  0  0  0  0  0  0  0  0  0  0
   -3.3635    5.2893   -2.0586 H   0  0  0  0  0  0  0  0  0  0  0  0
   -2.3943    4.5547   -0.7513 H   0  0  0  0  0  0  0  0  0  0  0  0
   -1.4954    2.0653   -2.7792 H   0  0  0  0  0  0  0  0  0  0  0  0
   -2.8030    0.9856   -2.2189 H   0  0  0  0  0  0  0  0  0  0  0  0
   -1.0152    2.7544   -0.4277 H   0  0  0  0  0  0  0  0  0  0  0  0
    3.3023    1.2752    0.0331 H   0  0  0  0  0  0  0  0  0  0  0  0
    5.6108    0.7024    0.5943 H   0  0  0  0  0  0  0  0  0  0  0  0
    6.4252   -2.8520    2.9738 H   0  0  0  0  0  0  0  0  0  0  0  0
    8.1472   -2.2944    2.9069 H   0  0  0  0  0  0  0  0  0  0  0  0
    6.8138   -1.0919    3.1449 H   0  0  0  0  0  0  0  0  0  0  0  0
    4.6719   -3.4813    0.3063 H   0  0  0  0  0  0  0  0  0  0  0  0
   -3.2972    2.3848    0.5424 H   0  0  0  0  0  0  0  0  0  0  0  0
   -1.7790    2.7174    2.0995 H   0  0  0  0  0  0  0  0  0  0  0  0
   -0.9084    1.3229    1.8432 H   0  0  0  0  0  0  0  0  0  0  0  0
   -2.1119   -0.7826    2.8039 H   0  0  0  0  0  0  0  0  0  0  0  0
   -0.7996   -0.9372    1.5455 H   0  0  0  0  0  0  0  0  0  0  0  0
   -0.7560   -3.1735    2.1858 H   0  0  0  0  0  0  0  0  0  0  0  0
   -2.4031   -3.0640    2.9304 H   0  0  0  0  0  0  0  0  0  0  0  0
   -3.0508   -4.2636    1.0246 H   0  0  0  0  0  0  0  0  0  0  0  0
   -4.3537   -2.3826    0.5130 H   0  0  0  0  0  0  0  0  0  0  0  0
   -3.2119   -2.2057   -0.8910 H   0  0  0  0  0  0  0  0  0  0  0  0
    2.4617   -0.1730    0.3027 H   0  0  0  0  0  0  0  0  0  0  0  0
  1  2  1  0
  2  3  1  0
  2  4  1  0
  4  5  1  0
  5  6  1  0
  6  7  2  0
  7  8  1  0
  8  9  1  0
  9 10  2  0
 10 11  1  0
 11 12  2  0
 12 13  1  0
 13 14  1  0
 13 15  2  0
 13 16  2  0
 12 17  1  0
 17 18  2  0
 18 19  1  0
  8 20  2  0
 20 21  1  0
  5 22  1  0
 22 23  1  0
 22 24  1  0
 24 25  2  0
 24 26  1  0
 26 27  1  0
 27 28  1  0
 28 29  1  0
 29 30  1  0
 29 31  1  0
 32 33  2  0
 33 34  1  0
 33 35  1  0
 35 36  1  0
 35 37  1  0
 35 38  1  0
 21  6  1  0
 31 26  1  0
 18  9  1  0
  1 39  1  0
  1 40  1  0
  1 41  1  0
  2 42  1  0
  3 43  1  0
  3 44  1  0
  3 45  1  0
  4 46  1  0
  4 47  1  0
  5 48  1  1
 10 49  1  0
 11 50  1  0
 14 51  1  0
 14 52  1  0
 14 53  1  0
 17 54  1  0
 22 55  1  1
 23 56  1  0
 23 57  1  0
 27 58  1  0
 27 59  1  0
 28 60  1  0
 28 61  1  0
 29 62  1  1
 31 63  1  0
 31 64  1  0
 34 65  1  0
M  END
$$$$
