
     RDKit          3D

 44 46  0  0  0  0  0  0  0  0999 V2000
    4.9173   -0.6347    0.0666 C   0  0  0  0  0  0  0  0  0  0  0  0
    3.5734    0.0863    0.2263 C   0  0  0  0  0  0  0  0  0  0  0  0
    3.8076    1.5861    0.4615 C   0  0  0  0  0  0  0  0  0  0  0  0
    2.6851   -0.1643   -1.0134 C   0  0  0  0  0  0  0  0  0  0  0  0
    1.2621    0.2951   -0.7958 C   0  0  0  0  0  0  0  0  0  0  0  0
    0.9535    1.5624   -1.1743 N   0  0  0  0  0  0  0  0  0  0  0  0
   -0.2802    2.0981   -1.0186 C   0  0  0  0  0  0  0  0  0  0  0  0
   -0.5159    3.4141   -1.4321 C   0  0  0  0  0  0  0  0  0  0  0  0
   -1.7818    3.9818   -1.2809 C   0  0  0  0  0  0  0  0  0  0  0  0
   -2.8194    3.2376   -0.7154 C   0  0  0  0  0  0  0  0  0  0  0  0
   -4.5500    4.0193   -0.5099 Br  0  0  0  0  0  0  0  0  0  0  0  0
   -2.5935    1.9215   -0.2989 C   0  0  0  0  0  0  0  0  0  0  0  0
   -1.3178    1.3328   -0.4453 C   0  0  0  0  0  0  0  0  0  0  0  0
   -1.0417    0.0053   -0.0387 C   0  0  0  0  0  0  0  0  0  0  0  0
   -2.1193   -0.8258    0.5444 C   0  0  0  0  0  0  0  0  0  0  0  0
   -2.9730   -1.5612   -0.2914 C   0  0  0  0  0  0  0  0  0  0  0  0
   -3.9965   -2.3373    0.2609 C   0  0  0  0  0  0  0  0  0  0  0  0
   -4.1744   -2.3780    1.6472 C   0  0  0  0  0  0  0  0  0  0  0  0
   -3.3300   -1.6411    2.4833 C   0  0  0  0  0  0  0  0  0  0  0  0
   -2.3051   -0.8641    1.9347 C   0  0  0  0  0  0  0  0  0  0  0  0
    0.2681   -0.5232   -0.1968 C   0  0  0  0  0  0  0  0  0  0  0  0
    0.5750   -1.9626    0.1849 C   0  0  0  0  0  0  0  0  0  0  0  0
    0.4688   -2.8237   -0.9884 N   0  0  0  0  0  0  0  0  0  0  0  0
    5.5486   -0.4768    0.9671 H   0  0  0  0  0  0  0  0  0  0  0  0
    4.7544   -1.7276   -0.0491 H   0  0  0  0  0  0  0  0  0  0  0  0
    5.4616   -0.2558   -0.8252 H   0  0  0  0  0  0  0  0  0  0  0  0
    3.0746   -0.3274    1.1295 H   0  0  0  0  0  0  0  0  0  0  0  0
    2.8494    2.0984    0.6876 H   0  0  0  0  0  0  0  0  0  0  0  0
    4.2684    2.0575   -0.4330 H   0  0  0  0  0  0  0  0  0  0  0  0
    4.4813    1.7376    1.3318 H   0  0  0  0  0  0  0  0  0  0  0  0
    2.6986   -1.2393   -1.2911 H   0  0  0  0  0  0  0  0  0  0  0  0
    3.1129    0.3734   -1.8886 H   0  0  0  0  0  0  0  0  0  0  0  0
    0.2827    3.9992   -1.8718 H   0  0  0  0  0  0  0  0  0  0  0  0
   -1.9556    5.0004   -1.6033 H   0  0  0  0  0  0  0  0  0  0  0  0
   -3.4184    1.3732    0.1371 H   0  0  0  0  0  0  0  0  0  0  0  0
   -2.8447   -1.5318   -1.3664 H   0  0  0  0  0  0  0  0  0  0  0  0
   -4.6527   -2.9058   -0.3853 H   0  0  0  0  0  0  0  0  0  0  0  0
   -4.9675   -2.9788    2.0733 H   0  0  0  0  0  0  0  0  0  0  0  0
   -3.4702   -1.6716    3.5560 H   0  0  0  0  0  0  0  0  0  0  0  0
   -1.6564   -0.2948    2.5889 H   0  0  0  0  0  0  0  0  0  0  0  0
   -0.0982   -2.3343    0.9860 H   0  0  0  0  0  0  0  0  0  0  0  0
    1.5957   -2.0451    0.6100 H   0  0  0  0  0  0  0  0  0  0  0  0
   -0.5394   -2.8886   -1.2577 H   0  0  0  0  0  0  0  0  0  0  0  0
    0.7628   -3.7865   -0.7055 H   0  0  0  0  0  0  0  0  0  0  0  0
  1  2  1  0
  2  3  1  0
  2  4  1  0
  4  5  1  0
  5  6  2  0
  6  7  1  0
  7  8  2  0
  8  9  1  0
  9 10  2  0
 10 11  1  0
 10 12  1  0
 12 13  2  0
 13 14  1  0
 14 15  1  0
 15 16  2  0
 16 17  1  0
 17 18  2  0
 18 19  1  0
 19 20  2  0
 14 21  2  0
 21 22  1  0
 22 23  1  0
 21  5  1  0
 13  7  1  0
 20 15  1  0
  1 24  1  0
  1 25  1  0
  1 26  1  0
  2 27  1  0
  3 28  1  0
  3 29  1  0
  3 30  1  0
  4 31  1  0
  4 32  1  0
  8 33  1  0
  9 34  1  0
 12 35  1  0
 16 36  1  0
 17 37  1  0
 18 38  1  0
 19 39  1  0
 20 40  1  0
 22 41  1  0
 22 42  1  0
 23 43  1  0
 23 44  1  0
M  END
$$$$
