
     RDKit          3D

 47 49  0  0  0  0  0  0  0  0999 V2000
   -3.6927    3.3260   -1.8689 N   0  0  0  0  0  0  0  0  0  0  0  0
   -3.7899    2.2188   -1.5467 C   0  0  0  0  0  0  0  0  0  0  0  0
   -3.9125    0.8101   -1.1356 C   0  0  2  0  0  0  0  0  0  0  0  0
   -5.2616    0.2349   -1.5656 C   0  0  0  0  0  0  0  0  0  0  0  0
   -6.1522    0.3118   -0.3296 C   0  0  0  0  0  0  0  0  0  0  0  0
   -5.2007    0.3438    0.8590 C   0  0  0  0  0  0  0  0  0  0  0  0
   -3.9016    0.7145    0.3187 N   0  0  0  0  0  0  0  0  0  0  0  0
   -2.7320    0.8370    1.1543 C   0  0  0  0  0  0  0  0  0  0  0  0
   -2.8559    0.7031    2.4029 O   0  0  0  0  0  0  0  0  0  0  0  0
   -1.3487    1.0329    0.5626 C   0  0  2  0  0  0  0  0  0  0  0  0
   -0.6363   -0.2898    0.3391 C   0  0  0  0  0  0  0  0  0  0  0  0
    0.8393    0.0799    0.3582 C   0  0  2  0  0  0  0  0  0  0  0  0
    1.6052   -0.9451    1.1007 N   0  0  0  0  0  0  0  0  0  0  0  0
    2.9941   -1.1725    0.6488 C   0  0  0  0  0  0  0  0  0  0  0  0
    3.0329   -1.9553   -0.6793 C   0  0  0  0  0  0  0  0  0  0  0  0
    4.4805   -2.2627   -1.0854 C   0  0  0  0  0  0  0  0  0  0  0  0
    5.3137   -0.9770   -1.1739 C   0  0  0  0  0  0  0  0  0  0  0  0
    5.2782   -0.2010    0.1497 C   0  0  0  0  0  0  0  0  0  0  0  0
    3.8356    0.1204    0.5620 C   0  0  0  0  0  0  0  0  0  0  0  0
    0.8882    1.4704    1.0225 C   0  0  0  0  0  0  0  0  0  0  0  0
   -0.4727    1.8398    1.4156 N   0  0  0  0  0  0  0  0  0  0  0  0
   -3.0877    0.2120   -1.5789 H   0  0  0  0  0  0  0  0  0  0  0  0
   -5.1287   -0.8329   -1.8483 H   0  0  0  0  0  0  0  0  0  0  0  0
   -5.7156    0.7720   -2.4284 H   0  0  0  0  0  0  0  0  0  0  0  0
   -6.7444    1.2530   -0.3592 H   0  0  0  0  0  0  0  0  0  0  0  0
   -6.8449   -0.5558   -0.2738 H   0  0  0  0  0  0  0  0  0  0  0  0
   -5.5359    1.0917    1.6100 H   0  0  0  0  0  0  0  0  0  0  0  0
   -5.1361   -0.6618    1.3289 H   0  0  0  0  0  0  0  0  0  0  0  0
   -1.4317    1.5590   -0.4119 H   0  0  0  0  0  0  0  0  0  0  0  0
   -0.8730   -0.9978    1.1659 H   0  0  0  0  0  0  0  0  0  0  0  0
   -0.9290   -0.7504   -0.6297 H   0  0  0  0  0  0  0  0  0  0  0  0
    1.1824    0.1685   -0.6948 H   0  0  0  0  0  0  0  0  0  0  0  0
    1.5963   -0.7477    2.1293 H   0  0  0  0  0  0  0  0  0  0  0  0
    3.4779   -1.8237    1.4133 H   0  0  0  0  0  0  0  0  0  0  0  0
    2.4784   -2.9113   -0.5609 H   0  0  0  0  0  0  0  0  0  0  0  0
    2.5509   -1.3811   -1.4976 H   0  0  0  0  0  0  0  0  0  0  0  0
    4.4842   -2.7706   -2.0739 H   0  0  0  0  0  0  0  0  0  0  0  0
    4.9388   -2.9545   -0.3448 H   0  0  0  0  0  0  0  0  0  0  0  0
    4.9232   -0.3348   -1.9939 H   0  0  0  0  0  0  0  0  0  0  0  0
    6.3660   -1.2389   -1.4165 H   0  0  0  0  0  0  0  0  0  0  0  0
    5.8463    0.7470    0.0339 H   0  0  0  0  0  0  0  0  0  0  0  0
    5.7716   -0.7994    0.9470 H   0  0  0  0  0  0  0  0  0  0  0  0
    3.8485    0.6238    1.5523 H   0  0  0  0  0  0  0  0  0  0  0  0
    3.4068    0.8231   -0.1836 H   0  0  0  0  0  0  0  0  0  0  0  0
    1.2607    2.2191    0.2899 H   0  0  0  0  0  0  0  0  0  0  0  0
    1.5693    1.5050    1.9015 H   0  0  0  0  0  0  0  0  0  0  0  0
   -0.5852    1.5466    2.4150 H   0  0  0  0  0  0  0  0  0  0  0  0
  1  2  3  0
  2  3  1  0
  3  4  1  0
  4  5  1  0
  5  6  1  0
  6  7  1  0
  7  8  1  0
  8  9  2  0
  8 10  1  0
 10 11  1  0
 11 12  1  0
 12 13  1  0
 13 14  1  0
 14 15  1  0
 15 16  1  0
 16 17  1  0
 17 18  1  0
 18 19  1  0
 12 20  1  0
 20 21  1  0
  7  3  1  0
 21 10  1  0
 19 14  1  0
  3 22  1  6
  4 23  1  0
  4 24  1  0
  5 25  1  0
  5 26  1  0
  6 27  1  0
  6 28  1  0
 10 29  1  6
 11 30  1  0
 11 31  1  0
 12 32  1  6
 13 33  1  0
 14 34  1  0
 15 35  1  0
 15 36  1  0
 16 37  1  0
 16 38  1  0
 17 39  1  0
 17 40  1  0
 18 41  1  0
 18 42  1  0
 19 43  1  0
 19 44  1  0
 20 45  1  0
 20 46  1  0
 21 47  1  0
M  END
$$$$
