
     RDKit          3D

 50 53  0  0  0  0  0  0  0  0999 V2000
   -2.7725    0.9442    1.3259 N   0  0  0  0  0  0  0  0  0  0  0  0
   -2.6036    0.3844   -0.0184 C   0  0  1  0  0  0  0  0  0  0  0  0
   -2.5636   -1.1595    0.0385 C   0  0  0  0  0  0  0  0  0  0  0  0
   -1.2968   -1.6674    0.6798 C   0  0  0  0  0  0  0  0  0  0  0  0
   -1.3939   -2.2853    1.7756 O   0  0  0  0  0  0  0  0  0  0  0  0
    0.0115   -1.4299    0.1092 N   0  0  0  0  0  0  0  0  0  0  0  0
    0.2061   -1.2730   -1.3477 C   0  0  0  0  0  0  0  0  0  0  0  0
    1.2029   -0.1435   -1.6472 C   0  0  0  0  0  0  0  0  0  0  0  0
    2.4261   -0.2873   -0.7997 C   0  0  0  0  0  0  0  0  0  0  0  0
    3.6194    0.2815   -1.1150 N   0  0  0  0  0  0  0  0  0  0  0  0
    4.5563    0.0519   -0.1626 C   0  0  0  0  0  0  0  0  0  0  0  0
    5.9480    0.5504   -0.2540 C   0  0  0  0  0  0  0  0  0  0  0  0
    6.8817    0.2848    0.7658 C   0  0  0  0  0  0  0  0  0  0  0  0
    8.1927    0.7613    0.6671 C   0  0  0  0  0  0  0  0  0  0  0  0
    8.5867    1.5062   -0.4468 C   0  0  0  0  0  0  0  0  0  0  0  0
    9.8585    1.9669   -0.5397 F   0  0  0  0  0  0  0  0  0  0  0  0
    7.6695    1.7760   -1.4649 C   0  0  0  0  0  0  0  0  0  0  0  0
    6.3573    1.3020   -1.3714 C   0  0  0  0  0  0  0  0  0  0  0  0
    3.9170   -0.8577    1.1143 S   0  0  0  0  0  0  0  0  0  0  0  0
    2.3938   -0.9474    0.4157 C   0  0  0  0  0  0  0  0  0  0  0  0
    1.1952   -1.6584    0.9601 C   0  0  0  0  0  0  0  0  0  0  0  0
   -3.7214    0.8880   -0.9600 C   0  0  0  0  0  0  0  0  0  0  0  0
   -5.1106    0.5042   -0.5008 C   0  0  0  0  0  0  0  0  0  0  0  0
   -5.6915   -0.6956   -0.9489 C   0  0  0  0  0  0  0  0  0  0  0  0
   -6.9668   -1.0699   -0.5150 C   0  0  0  0  0  0  0  0  0  0  0  0
   -7.5169   -2.2301   -0.9501 F   0  0  0  0  0  0  0  0  0  0  0  0
   -7.6744   -0.2497    0.3669 C   0  0  0  0  0  0  0  0  0  0  0  0
   -7.1092    0.9468    0.8146 C   0  0  0  0  0  0  0  0  0  0  0  0
   -5.8334    1.3269    0.3851 C   0  0  0  0  0  0  0  0  0  0  0  0
   -5.3115    2.4995    0.8255 F   0  0  0  0  0  0  0  0  0  0  0  0
   -1.9540    0.6616    1.9121 H   0  0  0  0  0  0  0  0  0  0  0  0
   -2.7175    1.9865    1.2558 H   0  0  0  0  0  0  0  0  0  0  0  0
   -1.6413    0.7537   -0.4384 H   0  0  0  0  0  0  0  0  0  0  0  0
   -3.4375   -1.5234    0.6226 H   0  0  0  0  0  0  0  0  0  0  0  0
   -2.6650   -1.5992   -0.9751 H   0  0  0  0  0  0  0  0  0  0  0  0
    0.5941   -2.2282   -1.7639 H   0  0  0  0  0  0  0  0  0  0  0  0
   -0.7372   -1.0413   -1.8774 H   0  0  0  0  0  0  0  0  0  0  0  0
    0.7299    0.8373   -1.4272 H   0  0  0  0  0  0  0  0  0  0  0  0
    1.4834   -0.1696   -2.7219 H   0  0  0  0  0  0  0  0  0  0  0  0
    6.6042   -0.2895    1.6398 H   0  0  0  0  0  0  0  0  0  0  0  0
    8.9033    0.5519    1.4565 H   0  0  0  0  0  0  0  0  0  0  0  0
    7.9740    2.3532   -2.3286 H   0  0  0  0  0  0  0  0  0  0  0  0
    5.6645    1.5241   -2.1734 H   0  0  0  0  0  0  0  0  0  0  0  0
    1.4077   -2.7471    1.0132 H   0  0  0  0  0  0  0  0  0  0  0  0
    1.0065   -1.2757    1.9863 H   0  0  0  0  0  0  0  0  0  0  0  0
   -3.6509    1.9939   -1.0506 H   0  0  0  0  0  0  0  0  0  0  0  0
   -3.5419    0.4912   -1.9836 H   0  0  0  0  0  0  0  0  0  0  0  0
   -5.1548   -1.3421   -1.6321 H   0  0  0  0  0  0  0  0  0  0  0  0
   -8.6618   -0.5392    0.7027 H   0  0  0  0  0  0  0  0  0  0  0  0
   -7.6623    1.5815    1.4950 H   0  0  0  0  0  0  0  0  0  0  0  0
  1  2  1  0
  2  3  1  0
  3  4  1  0
  4  5  2  0
  4  6  1  0
  6  7  1  0
  7  8  1  0
  8  9  1  0
  9 10  1  0
 10 11  2  0
 11 12  1  0
 12 13  2  0
 13 14  1  0
 14 15  2  0
 15 16  1  0
 15 17  1  0
 17 18  2  0
 11 19  1  0
 19 20  1  0
 20 21  1  0
  2 22  1  0
 22 23  1  0
 23 24  2  0
 24 25  1  0
 25 26  1  0
 25 27  2  0
 27 28  1  0
 28 29  2  0
 29 30  1  0
 21  6  1  0
 29 23  1  0
 20  9  2  0
 18 12  1  0
  1 31  1  0
  1 32  1  0
  2 33  1  6
  3 34  1  0
  3 35  1  0
  7 36  1  0
  7 37  1  0
  8 38  1  0
  8 39  1  0
 13 40  1  0
 14 41  1  0
 17 42  1  0
 18 43  1  0
 21 44  1  0
 21 45  1  0
 22 46  1  0
 22 47  1  0
 24 48  1  0
 27 49  1  0
 28 50  1  0
M  END
$$$$
