
     RDKit          3D

 64 68  0  0  0  0  0  0  0  0999 V2000
    8.5984   -1.2471    1.9409 N   0  0  0  0  0  0  0  0  0  0  0  0
    8.3432   -0.7493    0.9279 C   0  0  0  0  0  0  0  0  0  0  0  0
    8.0189   -0.1176   -0.3580 C   0  0  0  0  0  0  0  0  0  0  0  0
    6.5052    0.0490   -0.5354 C   0  0  0  0  0  0  0  0  0  0  0  0
    5.7909   -1.3004   -0.7218 C   0  0  0  0  0  0  0  0  0  0  0  0
    4.2900   -1.1166   -0.9639 C   0  0  0  0  0  0  0  0  0  0  0  0
    3.6495   -0.5522    0.2368 N   0  0  0  0  0  0  0  0  0  0  0  0
    2.3174    0.0671    0.0233 C   0  0  0  0  0  0  0  0  0  0  0  0
    1.6869    0.3483    1.4171 C   0  0  0  0  0  0  0  0  0  0  0  0
    0.3067    1.0130    1.2639 C   0  0  0  0  0  0  0  0  0  0  0  0
    0.4600    2.3489    0.5101 C   0  0  0  0  0  0  0  0  0  0  0  0
    1.0719    2.0874   -0.8805 C   0  0  0  0  0  0  0  0  0  0  0  0
    2.4567    1.4255   -0.7216 C   0  0  0  0  0  0  0  0  0  0  0  0
    0.1406    1.1578   -1.6904 C   0  0  0  0  0  0  0  0  0  0  0  0
   -0.0494   -0.1976   -0.9421 C   0  0  0  0  0  0  0  0  0  0  0  0
   -0.8924   -1.1405   -1.7210 N   0  0  0  0  0  0  0  0  0  0  0  0
   -2.3301   -0.8227   -1.7968 C   0  0  0  0  0  0  0  0  0  0  0  0
   -3.0829   -1.5413   -0.7100 C   0  0  0  0  0  0  0  0  0  0  0  0
   -2.7623   -2.7282   -0.4286 O   0  0  0  0  0  0  0  0  0  0  0  0
   -4.1851   -0.9250   -0.0216 N   0  0  0  0  0  0  0  0  0  0  0  0
   -4.7364    0.3969   -0.3337 C   0  0  0  0  0  0  0  0  0  0  0  0
   -5.8679    0.5206    0.6157 C   0  0  0  0  0  0  0  0  0  0  0  0
   -6.7527    1.5905    0.7601 C   0  0  0  0  0  0  0  0  0  0  0  0
   -7.7591    1.5009    1.7355 C   0  0  0  0  0  0  0  0  0  0  0  0
   -7.8630    0.3528    2.5445 C   0  0  0  0  0  0  0  0  0  0  0  0
   -6.9609   -0.7112    2.3821 C   0  0  0  0  0  0  0  0  0  0  0  0
   -5.9688   -0.6004    1.4065 C   0  0  0  0  0  0  0  0  0  0  0  0
   -4.9184   -1.5870    1.0595 C   0  0  0  0  0  0  0  0  0  0  0  0
   -0.6314    0.0763    0.4763 C   0  0  0  0  0  0  0  0  0  0  0  0
    1.3484   -0.8583   -0.7710 C   0  0  0  0  0  0  0  0  0  0  0  0
    8.4404   -0.7277   -1.1851 H   0  0  0  0  0  0  0  0  0  0  0  0
    8.5000    0.8828   -0.3866 H   0  0  0  0  0  0  0  0  0  0  0  0
    6.3280    0.6784   -1.4348 H   0  0  0  0  0  0  0  0  0  0  0  0
    6.0851    0.5883    0.3424 H   0  0  0  0  0  0  0  0  0  0  0  0
    6.2278   -1.8287   -1.5974 H   0  0  0  0  0  0  0  0  0  0  0  0
    5.9406   -1.9402    0.1751 H   0  0  0  0  0  0  0  0  0  0  0  0
    4.1558   -0.4694   -1.8531 H   0  0  0  0  0  0  0  0  0  0  0  0
    3.8482   -2.1114   -1.1963 H   0  0  0  0  0  0  0  0  0  0  0  0
    3.5602   -1.3317    0.9316 H   0  0  0  0  0  0  0  0  0  0  0  0
    2.3559    1.0093    2.0120 H   0  0  0  0  0  0  0  0  0  0  0  0
    1.5729   -0.6000    1.9883 H   0  0  0  0  0  0  0  0  0  0  0  0
   -0.1242    1.2052    2.2707 H   0  0  0  0  0  0  0  0  0  0  0  0
   -0.5312    2.8422    0.4036 H   0  0  0  0  0  0  0  0  0  0  0  0
    1.1129    3.0388    1.0887 H   0  0  0  0  0  0  0  0  0  0  0  0
    1.1860    3.0538   -1.4185 H   0  0  0  0  0  0  0  0  0  0  0  0
    3.1360    2.1017   -0.1568 H   0  0  0  0  0  0  0  0  0  0  0  0
    2.8934    1.2949   -1.7324 H   0  0  0  0  0  0  0  0  0  0  0  0
    0.5755    0.9829   -2.6992 H   0  0  0  0  0  0  0  0  0  0  0  0
   -0.8286    1.6768   -1.8388 H   0  0  0  0  0  0  0  0  0  0  0  0
   -0.5183   -1.1989   -2.6980 H   0  0  0  0  0  0  0  0  0  0  0  0
   -2.7363   -1.1821   -2.7676 H   0  0  0  0  0  0  0  0  0  0  0  0
   -2.5122    0.2674   -1.7686 H   0  0  0  0  0  0  0  0  0  0  0  0
   -3.9857    1.1914   -0.1382 H   0  0  0  0  0  0  0  0  0  0  0  0
   -5.1011    0.4290   -1.3824 H   0  0  0  0  0  0  0  0  0  0  0  0
   -6.6656    2.4699    0.1353 H   0  0  0  0  0  0  0  0  0  0  0  0
   -8.4571    2.3176    1.8661 H   0  0  0  0  0  0  0  0  0  0  0  0
   -8.6408    0.2902    3.2944 H   0  0  0  0  0  0  0  0  0  0  0  0
   -7.0342   -1.5967    3.0000 H   0  0  0  0  0  0  0  0  0  0  0  0
   -4.2489   -1.7683    1.9273 H   0  0  0  0  0  0  0  0  0  0  0  0
   -5.3763   -2.5321    0.6973 H   0  0  0  0  0  0  0  0  0  0  0  0
   -1.6265    0.5634    0.4122 H   0  0  0  0  0  0  0  0  0  0  0  0
   -0.7612   -0.8801    1.0296 H   0  0  0  0  0  0  0  0  0  0  0  0
    1.7618   -1.0722   -1.7804 H   0  0  0  0  0  0  0  0  0  0  0  0
    1.2438   -1.8330   -0.2441 H   0  0  0  0  0  0  0  0  0  0  0  0
  1  2  3  0
  2  3  1  0
  3  4  1  0
  4  5  1  0
  5  6  1  0
  6  7  1  0
  7  8  1  0
  8  9  1  0
  9 10  1  0
 10 11  1  0
 11 12  1  0
 12 13  1  0
 12 14  1  0
 14 15  1  0
 15 16  1  0
 16 17  1  0
 17 18  1  0
 18 19  2  0
 18 20  1  0
 20 21  1  0
 21 22  1  0
 22 23  2  0
 23 24  1  0
 24 25  2  0
 25 26  1  0
 26 27  2  0
 27 28  1  0
 15 29  1  0
 15 30  1  0
 13  8  1  0
 28 20  1  0
 30  8  1  0
 29 10  1  0
 27 22  1  0
  3 31  1  0
  3 32  1  0
  4 33  1  0
  4 34  1  0
  5 35  1  0
  5 36  1  0
  6 37  1  0
  6 38  1  0
  7 39  1  0
  9 40  1  0
  9 41  1  0
 10 42  1  0
 11 43  1  0
 11 44  1  0
 12 45  1  0
 13 46  1  0
 13 47  1  0
 14 48  1  0
 14 49  1  0
 16 50  1  0
 17 51  1  0
 17 52  1  0
 21 53  1  0
 21 54  1  0
 23 55  1  0
 24 56  1  0
 25 57  1  0
 26 58  1  0
 28 59  1  0
 28 60  1  0
 29 61  1  0
 29 62  1  0
 30 63  1  0
 30 64  1  0
M  END
$$$$
