
     RDKit          3D

 54 56  0  0  0  0  0  0  0  0999 V2000
    3.2609    1.6316    1.7372 C   0  0  0  0  0  0  0  0  0  0  0  0
    2.8044    0.4154    1.0485 N   0  0  0  0  0  0  0  0  0  0  0  0
    1.3216    0.2886    1.0762 C   0  0  1  0  0  0  0  0  0  0  0  0
    0.5821    1.0948   -0.0148 C   0  0  0  0  0  0  0  0  0  0  0  0
   -0.9360    0.9588    0.1551 C   0  0  0  0  0  0  0  0  0  0  0  0
   -1.3876   -0.5255    0.0986 C   0  0  2  0  0  0  0  0  0  0  0  0
   -2.9429   -0.6383    0.2490 C   0  0  2  0  0  0  0  0  0  0  0  0
   -3.3400   -2.0015    0.6325 N   0  0  0  0  0  0  0  0  0  0  0  0
   -3.6501   -0.2496   -1.0780 C   0  0  0  0  0  0  0  0  0  0  0  0
   -5.1197    0.0349   -0.8784 C   0  0  0  0  0  0  0  0  0  0  0  0
   -6.0845   -0.9134   -1.2614 C   0  0  0  0  0  0  0  0  0  0  0  0
   -7.4450   -0.6552   -1.0666 C   0  0  0  0  0  0  0  0  0  0  0  0
   -8.3689   -1.5758   -1.4369 F   0  0  0  0  0  0  0  0  0  0  0  0
   -7.8531    0.5500   -0.4894 C   0  0  0  0  0  0  0  0  0  0  0  0
   -6.9022    1.4992   -0.1064 C   0  0  0  0  0  0  0  0  0  0  0  0
   -5.5398    1.2469   -0.2981 C   0  0  0  0  0  0  0  0  0  0  0  0
   -4.6321    2.1835    0.0780 F   0  0  0  0  0  0  0  0  0  0  0  0
   -0.6201   -1.3334    1.1778 C   0  0  0  0  0  0  0  0  0  0  0  0
    0.9012   -1.1888    1.0281 C   0  0  0  0  0  0  0  0  0  0  0  0
    3.5463    0.3299   -0.5396 S   0  0  0  0  0  0  0  0  0  0  0  0
    2.9586   -0.7824   -1.3610 O   0  0  0  0  0  0  0  0  0  0  0  0
    3.3485    1.6304   -1.2703 O   0  0  0  0  0  0  0  0  0  0  0  0
    5.2691    0.0114   -0.3423 C   0  0  0  0  0  0  0  0  0  0  0  0
    6.2238    0.8988   -0.8631 C   0  0  0  0  0  0  0  0  0  0  0  0
    7.5879    0.6427   -0.6938 C   0  0  0  0  0  0  0  0  0  0  0  0
    8.0064   -0.4986   -0.0040 C   0  0  0  0  0  0  0  0  0  0  0  0
    9.3296   -0.7450    0.1596 F   0  0  0  0  0  0  0  0  0  0  0  0
    7.0603   -1.3855    0.5178 C   0  0  0  0  0  0  0  0  0  0  0  0
    5.6945   -1.1336    0.3510 C   0  0  0  0  0  0  0  0  0  0  0  0
    4.7893   -2.0037    0.8660 F   0  0  0  0  0  0  0  0  0  0  0  0
    2.8826    2.5463    1.2331 H   0  0  0  0  0  0  0  0  0  0  0  0
    2.9174    1.6280    2.7936 H   0  0  0  0  0  0  0  0  0  0  0  0
    4.3707    1.6664    1.7613 H   0  0  0  0  0  0  0  0  0  0  0  0
    0.9560    0.6671    2.0600 H   0  0  0  0  0  0  0  0  0  0  0  0
    0.8457    0.7331   -1.0305 H   0  0  0  0  0  0  0  0  0  0  0  0
    0.8548    2.1689    0.0560 H   0  0  0  0  0  0  0  0  0  0  0  0
   -1.4160    1.5525   -0.6479 H   0  0  0  0  0  0  0  0  0  0  0  0
   -1.2379    1.4098    1.1265 H   0  0  0  0  0  0  0  0  0  0  0  0
   -1.1020   -0.9444   -0.8933 H   0  0  0  0  0  0  0  0  0  0  0  0
   -3.2687    0.0619    1.0528 H   0  0  0  0  0  0  0  0  0  0  0  0
   -3.1172   -2.1383    1.6451 H   0  0  0  0  0  0  0  0  0  0  0  0
   -4.3799   -2.0890    0.5886 H   0  0  0  0  0  0  0  0  0  0  0  0
   -3.1949    0.6517   -1.5329 H   0  0  0  0  0  0  0  0  0  0  0  0
   -3.5098   -1.0661   -1.8207 H   0  0  0  0  0  0  0  0  0  0  0  0
   -5.7827   -1.8534   -1.7066 H   0  0  0  0  0  0  0  0  0  0  0  0
   -8.9062    0.7497   -0.3386 H   0  0  0  0  0  0  0  0  0  0  0  0
   -7.2221    2.4321    0.3397 H   0  0  0  0  0  0  0  0  0  0  0  0
   -0.9268   -0.9963    2.1928 H   0  0  0  0  0  0  0  0  0  0  0  0
   -0.8564   -2.4151    1.0843 H   0  0  0  0  0  0  0  0  0  0  0  0
    1.2090   -1.6613    0.0744 H   0  0  0  0  0  0  0  0  0  0  0  0
    1.3994   -1.7399    1.8553 H   0  0  0  0  0  0  0  0  0  0  0  0
    5.9175    1.7881   -1.3980 H   0  0  0  0  0  0  0  0  0  0  0  0
    8.3200    1.3303   -1.0973 H   0  0  0  0  0  0  0  0  0  0  0  0
    7.3854   -2.2687    1.0527 H   0  0  0  0  0  0  0  0  0  0  0  0
  1  2  1  0
  2  3  1  0
  3  4  1  0
  4  5  1  0
  5  6  1  0
  6  7  1  0
  7  8  1  0
  7  9  1  0
  9 10  1  0
 10 11  2  0
 11 12  1  0
 12 13  1  0
 12 14  2  0
 14 15  1  0
 15 16  2  0
 16 17  1  0
  6 18  1  0
 18 19  1  0
  2 20  1  0
 20 21  2  0
 20 22  2  0
 20 23  1  0
 23 24  2  0
 24 25  1  0
 25 26  2  0
 26 27  1  0
 26 28  1  0
 28 29  2  0
 29 30  1  0
 19  3  1  0
 29 23  1  0
 16 10  1  0
  1 31  1  0
  1 32  1  0
  1 33  1  0
  3 34  1  1
  4 35  1  0
  4 36  1  0
  5 37  1  0
  5 38  1  0
  6 39  1  6
  7 40  1  1
  8 41  1  0
  8 42  1  0
  9 43  1  0
  9 44  1  0
 11 45  1  0
 14 46  1  0
 15 47  1  0
 18 48  1  0
 18 49  1  0
 19 50  1  0
 19 51  1  0
 24 52  1  0
 25 53  1  0
 28 54  1  0
M  END
$$$$
