
     RDKit          3D

 48 50  0  0  0  0  0  0  0  0999 V2000
   -1.3766    4.3032   -1.1116 C   0  0  0  0  0  0  0  0  0  0  0  0
   -1.1855    2.9782   -0.4325 C   0  0  0  0  0  0  0  0  0  0  0  0
    0.0209    2.3709   -0.5293 N   0  0  0  0  0  0  0  0  0  0  0  0
    0.2790    1.1724    0.0516 C   0  0  0  0  0  0  0  0  0  0  0  0
    1.6087    0.6395   -0.0497 N   0  0  0  0  0  0  0  0  0  0  0  0
    2.5009    0.7324    1.1133 C   0  0  0  0  0  0  0  0  0  0  0  0
    3.4364   -0.4885    1.2056 C   0  0  0  0  0  0  0  0  0  0  0  0
    3.7630   -1.1256   -0.1595 C   0  0  0  0  0  0  0  0  0  0  0  0
    3.6160   -0.1170   -1.3124 C   0  0  1  0  0  0  0  0  0  0  0  0
    4.0114   -0.7100   -2.5918 N   0  0  0  0  0  0  0  0  0  0  0  0
    2.1607    0.3780   -1.3867 C   0  0  0  0  0  0  0  0  0  0  0  0
   -0.7074    0.5207    0.7547 N   0  0  0  0  0  0  0  0  0  0  0  0
   -0.4839   -0.8262    1.3266 C   0  0  0  0  0  0  0  0  0  0  0  0
   -1.3613   -1.8587    0.6452 C   0  0  0  0  0  0  0  0  0  0  0  0
   -1.2276   -2.0435   -0.7424 C   0  0  0  0  0  0  0  0  0  0  0  0
   -2.0084   -2.9856   -1.4148 C   0  0  0  0  0  0  0  0  0  0  0  0
   -2.9300   -3.7604   -0.7112 C   0  0  0  0  0  0  0  0  0  0  0  0
   -3.0726   -3.5971    0.6678 C   0  0  0  0  0  0  0  0  0  0  0  0
   -2.2945   -2.6544    1.3556 C   0  0  0  0  0  0  0  0  0  0  0  0
   -2.4773   -2.5271    2.7815 C   0  0  0  0  0  0  0  0  0  0  0  0
   -2.6247   -2.4251    3.9248 N   0  0  0  0  0  0  0  0  0  0  0  0
   -1.9343    1.1211    0.9112 C   0  0  0  0  0  0  0  0  0  0  0  0
   -2.8254    0.5611    1.6096 O   0  0  0  0  0  0  0  0  0  0  0  0
   -2.2135    2.3580    0.2980 C   0  0  0  0  0  0  0  0  0  0  0  0
   -3.5595    3.0252    0.4632 C   0  0  0  0  0  0  0  0  0  0  0  0
   -1.7433    5.0576   -0.3842 H   0  0  0  0  0  0  0  0  0  0  0  0
   -0.4154    4.6669   -1.5334 H   0  0  0  0  0  0  0  0  0  0  0  0
   -2.1059    4.1994   -1.9418 H   0  0  0  0  0  0  0  0  0  0  0  0
    3.1102    1.6575    1.0188 H   0  0  0  0  0  0  0  0  0  0  0  0
    1.9152    0.8167    2.0554 H   0  0  0  0  0  0  0  0  0  0  0  0
    4.3813   -0.1712    1.6985 H   0  0  0  0  0  0  0  0  0  0  0  0
    2.9737   -1.2605    1.8582 H   0  0  0  0  0  0  0  0  0  0  0  0
    3.0749   -1.9829   -0.3340 H   0  0  0  0  0  0  0  0  0  0  0  0
    4.7996   -1.5271   -0.1370 H   0  0  0  0  0  0  0  0  0  0  0  0
    4.2781    0.7555   -1.1109 H   0  0  0  0  0  0  0  0  0  0  0  0
    3.4914   -1.6066   -2.7361 H   0  0  0  0  0  0  0  0  0  0  0  0
    5.0295   -0.9463   -2.5484 H   0  0  0  0  0  0  0  0  0  0  0  0
    2.1196    1.3040   -2.0006 H   0  0  0  0  0  0  0  0  0  0  0  0
    1.5346   -0.3929   -1.8841 H   0  0  0  0  0  0  0  0  0  0  0  0
   -0.6540   -0.7813    2.4222 H   0  0  0  0  0  0  0  0  0  0  0  0
    0.5620   -1.1673    1.2080 H   0  0  0  0  0  0  0  0  0  0  0  0
   -0.5197   -1.4524   -1.3067 H   0  0  0  0  0  0  0  0  0  0  0  0
   -1.8980   -3.1151   -2.4837 H   0  0  0  0  0  0  0  0  0  0  0  0
   -3.5340   -4.4902   -1.2348 H   0  0  0  0  0  0  0  0  0  0  0  0
   -3.7914   -4.2089    1.2002 H   0  0  0  0  0  0  0  0  0  0  0  0
   -4.3286    2.3274    0.8542 H   0  0  0  0  0  0  0  0  0  0  0  0
   -3.4659    3.8777    1.1680 H   0  0  0  0  0  0  0  0  0  0  0  0
   -3.9284    3.3985   -0.5147 H   0  0  0  0  0  0  0  0  0  0  0  0
  1  2  1  0
  2  3  1  0
  3  4  2  0
  4  5  1  0
  5  6  1  0
  6  7  1  0
  7  8  1  0
  8  9  1  0
  9 10  1  0
  9 11  1  0
  4 12  1  0
 12 13  1  0
 13 14  1  0
 14 15  2  0
 15 16  1  0
 16 17  2  0
 17 18  1  0
 18 19  2  0
 19 20  1  0
 20 21  3  0
 12 22  1  0
 22 23  2  0
 22 24  1  0
 24 25  1  0
 24  2  2  0
 11  5  1  0
 19 14  1  0
  1 26  1  0
  1 27  1  0
  1 28  1  0
  6 29  1  0
  6 30  1  0
  7 31  1  0
  7 32  1  0
  8 33  1  0
  8 34  1  0
  9 35  1  1
 10 36  1  0
 10 37  1  0
 11 38  1  0
 11 39  1  0
 13 40  1  0
 13 41  1  0
 15 42  1  0
 16 43  1  0
 17 44  1  0
 18 45  1  0
 25 46  1  0
 25 47  1  0
 25 48  1  0
M  END
$$$$
