
     RDKit          3D

 65 68  0  0  0  0  0  0  0  0999 V2000
   -1.7158   -4.5581   -0.0038 C   0  0  0  0  0  0  0  0  0  0  0  0
   -1.3534   -3.2362   -0.5139 C   0  0  0  0  0  0  0  0  0  0  0  0
   -1.0539   -2.1463   -0.9319 C   0  0  0  0  0  0  0  0  0  0  0  0
   -0.6871   -0.8188   -1.4338 C   0  0  0  0  0  0  0  0  0  0  0  0
   -0.9608    0.1968   -0.4124 N   0  0  0  0  0  0  0  0  0  0  0  0
   -2.0695    0.9778   -0.2795 C   0  0  0  0  0  0  0  0  0  0  0  0
   -3.1367    1.0344   -1.2382 N   0  0  0  0  0  0  0  0  0  0  0  0
   -2.8711    1.4802   -2.6121 C   0  0  0  0  0  0  0  0  0  0  0  0
   -3.8752    2.5642   -3.0087 C   0  0  0  0  0  0  0  0  0  0  0  0
   -5.3423    2.1101   -2.8365 C   0  0  0  0  0  0  0  0  0  0  0  0
   -5.5259    0.8751   -1.9204 C   0  0  1  0  0  0  0  0  0  0  0  0
   -5.3737   -0.3621   -2.6920 N   0  0  0  0  0  0  0  0  0  0  0  0
   -4.5182    0.9012   -0.7558 C   0  0  0  0  0  0  0  0  0  0  0  0
   -2.1038    1.6861    0.8787 N   0  0  0  0  0  0  0  0  0  0  0  0
   -0.9558    1.3237    1.4811 C   0  0  0  0  0  0  0  0  0  0  0  0
   -0.2767    0.4283    0.7270 C   0  0  0  0  0  0  0  0  0  0  0  0
    0.9001   -0.1371    1.2058 C   0  0  0  0  0  0  0  0  0  0  0  0
    1.5212   -0.9945    0.5222 O   0  0  0  0  0  0  0  0  0  0  0  0
    1.3619    0.2540    2.4434 N   0  0  0  0  0  0  0  0  0  0  0  0
    2.6291   -0.3101    2.9556 C   0  0  0  0  0  0  0  0  0  0  0  0
    3.8156    0.3833    2.3139 C   0  0  0  0  0  0  0  0  0  0  0  0
    4.0755    1.7155    2.6840 C   0  0  0  0  0  0  0  0  0  0  0  0
    5.0750    2.4534    2.0491 C   0  0  0  0  0  0  0  0  0  0  0  0
    5.8267    1.8776    1.0260 C   0  0  0  0  0  0  0  0  0  0  0  0
    7.0721    2.8133    0.2192 Cl  0  0  0  0  0  0  0  0  0  0  0  0
    5.5919    0.5541    0.6482 C   0  0  0  0  0  0  0  0  0  0  0  0
    4.6073   -0.2125    1.2936 C   0  0  0  0  0  0  0  0  0  0  0  0
    4.4474   -1.6154    0.8680 C   0  0  0  0  0  0  0  0  0  0  0  0
    4.4460   -2.5433    1.7225 O   0  0  0  0  0  0  0  0  0  0  0  0
    4.3442   -1.9079   -0.4950 O   0  0  0  0  0  0  0  0  0  0  0  0
    4.1385   -3.2289   -0.9831 C   0  0  0  0  0  0  0  0  0  0  0  0
    4.0038   -3.1959   -2.4968 C   0  0  0  0  0  0  0  0  0  0  0  0
    0.6490    1.1809    3.1890 C   0  0  0  0  0  0  0  0  0  0  0  0
    1.0629    1.5214    4.3332 O   0  0  0  0  0  0  0  0  0  0  0  0
   -0.5157    1.7324    2.7015 N   0  0  0  0  0  0  0  0  0  0  0  0
   -1.3035    2.6762    3.5059 C   0  0  0  0  0  0  0  0  0  0  0  0
   -0.9221   -4.9199    0.6817 H   0  0  0  0  0  0  0  0  0  0  0  0
   -1.8228   -5.2653   -0.8519 H   0  0  0  0  0  0  0  0  0  0  0  0
   -2.6772   -4.4914    0.5459 H   0  0  0  0  0  0  0  0  0  0  0  0
    0.3877   -0.8066   -1.7083 H   0  0  0  0  0  0  0  0  0  0  0  0
   -1.2594   -0.6224   -2.3578 H   0  0  0  0  0  0  0  0  0  0  0  0
   -1.8411    1.8917   -2.6991 H   0  0  0  0  0  0  0  0  0  0  0  0
   -2.9613    0.6221   -3.3112 H   0  0  0  0  0  0  0  0  0  0  0  0
   -3.6930    3.4575   -2.3712 H   0  0  0  0  0  0  0  0  0  0  0  0
   -3.6964    2.8658   -4.0635 H   0  0  0  0  0  0  0  0  0  0  0  0
   -5.9214    2.9581   -2.4093 H   0  0  0  0  0  0  0  0  0  0  0  0
   -5.7840    1.9048   -3.8361 H   0  0  0  0  0  0  0  0  0  0  0  0
   -6.5547    0.9022   -1.4937 H   0  0  0  0  0  0  0  0  0  0  0  0
   -6.1327   -0.3989   -3.4108 H   0  0  0  0  0  0  0  0  0  0  0  0
   -5.5474   -1.1741   -2.0557 H   0  0  0  0  0  0  0  0  0  0  0  0
   -4.6149   -0.0318   -0.1585 H   0  0  0  0  0  0  0  0  0  0  0  0
   -4.7566    1.7578   -0.0880 H   0  0  0  0  0  0  0  0  0  0  0  0
    2.6321   -1.4047    2.7957 H   0  0  0  0  0  0  0  0  0  0  0  0
    2.7062   -0.2022    4.0590 H   0  0  0  0  0  0  0  0  0  0  0  0
    3.4905    2.1935    3.4588 H   0  0  0  0  0  0  0  0  0  0  0  0
    5.2553    3.4788    2.3460 H   0  0  0  0  0  0  0  0  0  0  0  0
    6.1938    0.1155   -0.1392 H   0  0  0  0  0  0  0  0  0  0  0  0
    3.2087   -3.6511   -0.5430 H   0  0  0  0  0  0  0  0  0  0  0  0
    5.0010   -3.8714   -0.7025 H   0  0  0  0  0  0  0  0  0  0  0  0
    4.9280   -2.7800   -2.9509 H   0  0  0  0  0  0  0  0  0  0  0  0
    3.8435   -4.2251   -2.8816 H   0  0  0  0  0  0  0  0  0  0  0  0
    3.1379   -2.5632   -2.7861 H   0  0  0  0  0  0  0  0  0  0  0  0
   -0.6364    3.3723    4.0579 H   0  0  0  0  0  0  0  0  0  0  0  0
   -1.9282    2.1146    4.2319 H   0  0  0  0  0  0  0  0  0  0  0  0
   -1.9643    3.3000    2.8667 H   0  0  0  0  0  0  0  0  0  0  0  0
  1  2  1  0
  2  3  3  0
  3  4  1  0
  4  5  1  0
  5  6  1  0
  6  7  1  0
  7  8  1  0
  8  9  1  0
  9 10  1  0
 10 11  1  0
 11 12  1  0
 11 13  1  0
  6 14  2  0
 14 15  1  0
 15 16  2  0
 16 17  1  0
 17 18  2  0
 17 19  1  0
 19 20  1  0
 20 21  1  0
 21 22  2  0
 22 23  1  0
 23 24  2  0
 24 25  1  0
 24 26  1  0
 26 27  2  0
 27 28  1  0
 28 29  2  0
 28 30  1  0
 30 31  1  0
 31 32  1  0
 19 33  1  0
 33 34  2  0
 33 35  1  0
 35 36  1  0
 16  5  1  0
 27 21  1  0
 13  7  1  0
 35 15  1  0
  1 37  1  0
  1 38  1  0
  1 39  1  0
  4 40  1  0
  4 41  1  0
  8 42  1  0
  8 43  1  0
  9 44  1  0
  9 45  1  0
 10 46  1  0
 10 47  1  0
 11 48  1  1
 12 49  1  0
 12 50  1  0
 13 51  1  0
 13 52  1  0
 20 53  1  0
 20 54  1  0
 22 55  1  0
 23 56  1  0
 26 57  1  0
 31 58  1  0
 31 59  1  0
 32 60  1  0
 32 61  1  0
 32 62  1  0
 36 63  1  0
 36 64  1  0
 36 65  1  0
M  END
$$$$
