
     RDKit          3D

 55 56  0  0  0  0  0  0  0  0999 V2000
   -3.3918   -3.8512   -1.0205 C   0  0  0  0  0  0  0  0  0  0  0  0
   -2.5042   -2.8175   -0.3173 C   0  0  0  0  0  0  0  0  0  0  0  0
   -1.7740   -3.4675    0.8651 C   0  0  0  0  0  0  0  0  0  0  0  0
   -1.5138   -2.1917   -1.3273 C   0  0  0  0  0  0  0  0  0  0  0  0
   -0.7589   -1.0537   -0.7428 N   0  0  0  0  0  0  0  0  0  0  0  0
   -1.3070    0.2180   -0.6647 C   0  0  0  0  0  0  0  0  0  0  0  0
   -2.7560    0.5067   -1.0666 C   0  0  0  0  0  0  0  0  0  0  0  0
   -3.5240    0.9618    0.0898 N   0  0  0  0  0  0  0  0  0  0  0  0
   -0.5179    1.2999   -0.1849 C   0  0  0  0  0  0  0  0  0  0  0  0
   -1.0716    2.6771   -0.1501 C   0  0  0  0  0  0  0  0  0  0  0  0
   -1.5558    3.2134    1.0536 C   0  0  0  0  0  0  0  0  0  0  0  0
   -2.0638    4.5155    1.0872 C   0  0  0  0  0  0  0  0  0  0  0  0
   -2.0848    5.2893   -0.0771 C   0  0  0  0  0  0  0  0  0  0  0  0
   -1.5952    4.7630   -1.2762 C   0  0  0  0  0  0  0  0  0  0  0  0
   -1.0862    3.4612   -1.3139 C   0  0  0  0  0  0  0  0  0  0  0  0
    0.8010    1.0633    0.2560 C   0  0  0  0  0  0  0  0  0  0  0  0
    1.6231    2.1060    0.7390 C   0  0  0  0  0  0  0  0  0  0  0  0
    2.9199    1.8474    1.1803 C   0  0  0  0  0  0  0  0  0  0  0  0
    3.4367    0.5533    1.1504 C   0  0  0  0  0  0  0  0  0  0  0  0
    4.7500    0.3542    1.6085 O   0  0  0  0  0  0  0  0  0  0  0  0
    5.4536   -0.8879    1.5895 C   0  0  0  0  0  0  0  0  0  0  0  0
    5.8157   -1.2700    0.1855 C   0  0  0  0  0  0  0  0  0  0  0  0
    5.5208   -2.5752   -0.3121 N   0  0  0  0  0  0  0  0  0  0  0  0
    6.4067   -0.4392   -0.5544 O   0  0  0  0  0  0  0  0  0  0  0  0
    2.6322   -0.4933    0.6679 C   0  0  0  0  0  0  0  0  0  0  0  0
    1.3182   -0.2460    0.2136 C   0  0  0  0  0  0  0  0  0  0  0  0
    0.5228   -1.2879   -0.2941 C   0  0  0  0  0  0  0  0  0  0  0  0
    1.0050   -2.4562   -0.3360 O   0  0  0  0  0  0  0  0  0  0  0  0
    0.6878    0.0000    0.0000 Cl  0  0  0  0  0  0  0  0  0  0  0  0
   -2.7765   -4.6766   -1.4392 H   0  0  0  0  0  0  0  0  0  0  0  0
   -4.1264   -4.2784   -0.3048 H   0  0  0  0  0  0  0  0  0  0  0  0
   -3.9582   -3.3705   -1.8465 H   0  0  0  0  0  0  0  0  0  0  0  0
   -3.1695   -2.0308    0.0903 H   0  0  0  0  0  0  0  0  0  0  0  0
   -2.5055   -3.9396    1.5553 H   0  0  0  0  0  0  0  0  0  0  0  0
   -1.0651   -4.2459    0.5100 H   0  0  0  0  0  0  0  0  0  0  0  0
   -1.2158   -2.7013    1.4426 H   0  0  0  0  0  0  0  0  0  0  0  0
   -0.8311   -2.9872   -1.6990 H   0  0  0  0  0  0  0  0  0  0  0  0
   -2.0284   -1.8738   -2.2575 H   0  0  0  0  0  0  0  0  0  0  0  0
   -3.2892   -0.3443   -1.5255 H   0  0  0  0  0  0  0  0  0  0  0  0
   -2.7617    1.3009   -1.8427 H   0  0  0  0  0  0  0  0  0  0  0  0
   -3.6056    0.1719    0.7692 H   0  0  0  0  0  0  0  0  0  0  0  0
   -4.4930    1.1851   -0.2336 H   0  0  0  0  0  0  0  0  0  0  0  0
   -1.5410    2.6216    1.9606 H   0  0  0  0  0  0  0  0  0  0  0  0
   -2.4401    4.9252    2.0156 H   0  0  0  0  0  0  0  0  0  0  0  0
   -2.4781    6.2973   -0.0495 H   0  0  0  0  0  0  0  0  0  0  0  0
   -1.6087    5.3643   -2.1760 H   0  0  0  0  0  0  0  0  0  0  0  0
   -0.7050    3.0630   -2.2462 H   0  0  0  0  0  0  0  0  0  0  0  0
    1.2761    3.1299    0.7798 H   0  0  0  0  0  0  0  0  0  0  0  0
    3.5307    2.6626    1.5477 H   0  0  0  0  0  0  0  0  0  0  0  0
    6.3914   -0.7705    2.1711 H   0  0  0  0  0  0  0  0  0  0  0  0
    4.8518   -1.6784    2.0867 H   0  0  0  0  0  0  0  0  0  0  0  0
    5.0429   -3.2824    0.2892 H   0  0  0  0  0  0  0  0  0  0  0  0
    5.7792   -2.8362   -1.2895 H   0  0  0  0  0  0  0  0  0  0  0  0
    3.0261   -1.4990    0.6434 H   0  0  0  0  0  0  0  0  0  0  0  0
   -0.6878    0.0000    0.0000 H   0  0  0  0  0  0  0  0  0  0  0  0
  1  2  1  0
  2  3  1  0
  2  4  1  0
  4  5  1  0
  5  6  1  0
  6  7  1  0
  7  8  1  0
  6  9  2  0
  9 10  1  0
 10 11  2  0
 11 12  1  0
 12 13  2  0
 13 14  1  0
 14 15  2  0
  9 16  1  0
 16 17  2  0
 17 18  1  0
 18 19  2  0
 19 20  1  0
 20 21  1  0
 21 22  1  0
 22 23  1  0
 22 24  2  0
 19 25  1  0
 25 26  2  0
 26 27  1  0
 27 28  2  0
 27  5  1  0
 15 10  1  0
 26 16  1  0
  1 30  1  0
  1 31  1  0
  1 32  1  0
  2 33  1  0
  3 34  1  0
  3 35  1  0
  3 36  1  0
  4 37  1  0
  4 38  1  0
  7 39  1  0
  7 40  1  0
  8 41  1  0
  8 42  1  0
 11 43  1  0
 12 44  1  0
 13 45  1  0
 14 46  1  0
 15 47  1  0
 17 48  1  0
 18 49  1  0
 21 50  1  0
 21 51  1  0
 23 52  1  0
 23 53  1  0
 25 54  1  0
 29 55  1  0
M  END
$$$$
