
     RDKit          3D

 49 52  0  0  0  0  0  0  0  0999 V2000
    1.5814   -0.8205   -2.8240 O   0  0  0  0  0  0  0  0  0  0  0  0
    2.4938   -0.6259   -1.9740 C   0  0  0  0  0  0  0  0  0  0  0  0
    3.6972    0.1487   -2.3513 C   0  0  0  0  0  0  0  0  0  0  0  0
    3.7970    0.7622   -3.6120 C   0  0  0  0  0  0  0  0  0  0  0  0
    4.9484    1.4826   -3.9368 C   0  0  0  0  0  0  0  0  0  0  0  0
    5.9876    1.5872   -3.0118 C   0  0  0  0  0  0  0  0  0  0  0  0
    5.8588    0.9658   -1.7688 C   0  0  0  0  0  0  0  0  0  0  0  0
    4.7304    0.2686   -1.4700 N   0  0  0  0  0  0  0  0  0  0  0  0
    2.3686   -1.2469   -0.6012 C   0  0  2  0  0  0  0  0  0  0  0  0
    2.9162   -2.6758   -0.5896 C   0  0  0  0  0  0  0  0  0  0  0  0
    1.9330   -3.4867    0.2484 C   0  0  0  0  0  0  0  0  0  0  0  0
    0.6234   -2.7106    0.2194 C   0  0  0  0  0  0  0  0  0  0  0  0
    0.9736   -1.3602   -0.1917 N   0  0  0  0  0  0  0  0  0  0  0  0
    0.1073   -0.2210   -0.0198 C   0  0  0  0  0  0  0  0  0  0  0  0
    0.5934    0.9411   -0.0931 O   0  0  0  0  0  0  0  0  0  0  0  0
   -1.3594   -0.3981    0.3163 C   0  0  2  0  0  0  0  0  0  0  0  0
   -2.2685    0.6598   -0.3052 C   0  0  0  0  0  0  0  0  0  0  0  0
   -3.4642    0.7207    0.6417 C   0  0  2  0  0  0  0  0  0  0  0  0
   -3.9072    2.1676    0.9360 C   0  0  0  0  0  0  0  0  0  0  0  0
   -5.0052    2.2071    2.0128 C   0  0  0  0  0  0  0  0  0  0  0  0
   -4.7388    1.2643    3.2095 C   0  0  0  0  0  0  0  0  0  0  0  0
   -3.3096    0.7091    3.2245 C   0  0  0  0  0  0  0  0  0  0  0  0
   -3.0121   -0.0426    1.9076 C   0  0  2  0  0  0  0  0  0  0  0  0
   -1.5852   -0.3544    1.7610 N   0  0  0  0  0  0  0  0  0  0  0  0
    2.9957    0.6876   -4.3365 H   0  0  0  0  0  0  0  0  0  0  0  0
    5.0347    1.9593   -4.9047 H   0  0  0  0  0  0  0  0  0  0  0  0
    6.8835    2.1435   -3.2554 H   0  0  0  0  0  0  0  0  0  0  0  0
    6.6558    1.0371   -1.0408 H   0  0  0  0  0  0  0  0  0  0  0  0
    2.9074   -0.6341    0.1551 H   0  0  0  0  0  0  0  0  0  0  0  0
    3.9387   -2.7105   -0.1543 H   0  0  0  0  0  0  0  0  0  0  0  0
    2.9496   -3.1050   -1.6165 H   0  0  0  0  0  0  0  0  0  0  0  0
    1.8044   -4.5140   -0.1565 H   0  0  0  0  0  0  0  0  0  0  0  0
    2.3049   -3.5507    1.2948 H   0  0  0  0  0  0  0  0  0  0  0  0
   -0.0752   -3.1560   -0.5214 H   0  0  0  0  0  0  0  0  0  0  0  0
    0.1577   -2.7061    1.2290 H   0  0  0  0  0  0  0  0  0  0  0  0
   -1.6981   -1.3885   -0.0609 H   0  0  0  0  0  0  0  0  0  0  0  0
   -2.5799    0.3645   -1.3312 H   0  0  0  0  0  0  0  0  0  0  0  0
   -1.7571    1.6458   -0.3591 H   0  0  0  0  0  0  0  0  0  0  0  0
   -4.3205    0.1785    0.1790 H   0  0  0  0  0  0  0  0  0  0  0  0
   -3.0383    2.7676    1.2873 H   0  0  0  0  0  0  0  0  0  0  0  0
   -4.2878    2.6396    0.0042 H   0  0  0  0  0  0  0  0  0  0  0  0
   -5.9775    1.9338    1.5473 H   0  0  0  0  0  0  0  0  0  0  0  0
   -5.1010    3.2523    2.3794 H   0  0  0  0  0  0  0  0  0  0  0  0
   -5.4513    0.4109    3.1699 H   0  0  0  0  0  0  0  0  0  0  0  0
   -4.9287    1.8073    4.1607 H   0  0  0  0  0  0  0  0  0  0  0  0
   -2.5991    1.5521    3.3708 H   0  0  0  0  0  0  0  0  0  0  0  0
   -3.1905    0.0133    4.0830 H   0  0  0  0  0  0  0  0  0  0  0  0
   -3.5662   -1.0083    1.9441 H   0  0  0  0  0  0  0  0  0  0  0  0
   -1.0213    0.4376    2.1535 H   0  0  0  0  0  0  0  0  0  0  0  0
  1  2  2  0
  2  3  1  0
  3  4  2  0
  4  5  1  0
  5  6  2  0
  6  7  1  0
  7  8  2  0
  2  9  1  0
  9 10  1  0
 10 11  1  0
 11 12  1  0
 12 13  1  0
 13 14  1  0
 14 15  2  0
 14 16  1  0
 16 17  1  0
 17 18  1  0
 18 19  1  0
 19 20  1  0
 20 21  1  0
 21 22  1  0
 22 23  1  0
 23 24  1  0
  8  3  1  0
 13  9  1  0
 24 16  1  0
 23 18  1  0
  4 25  1  0
  5 26  1  0
  6 27  1  0
  7 28  1  0
  9 29  1  1
 10 30  1  0
 10 31  1  0
 11 32  1  0
 11 33  1  0
 12 34  1  0
 12 35  1  0
 16 36  1  6
 17 37  1  0
 17 38  1  0
 18 39  1  6
 19 40  1  0
 19 41  1  0
 20 42  1  0
 20 43  1  0
 21 44  1  0
 21 45  1  0
 22 46  1  0
 22 47  1  0
 23 48  1  1
 24 49  1  0
M  END
$$$$
