
     RDKit          3D

 44 47  0  0  0  0  0  0  0  0999 V2000
   -1.1000    1.1707   -1.1374 C   0  0  0  0  0  0  0  0  0  0  0  0
   -0.9656   -0.0059   -0.1259 C   0  0  2  0  0  0  0  0  0  0  0  0
   -2.2926   -0.5131    0.3417 N   0  0  0  0  0  0  0  0  0  0  0  0
   -3.1067    0.4021    1.1892 C   0  0  0  0  0  0  0  0  0  0  0  0
   -4.4956    0.1540    0.7630 C   0  0  0  0  0  0  0  0  0  0  0  0
   -5.5813    0.9897    0.6365 C   0  0  0  0  0  0  0  0  0  0  0  0
   -6.2525    0.6069   -0.4708 N   0  0  0  0  0  0  0  0  0  0  0  0
   -5.5882   -0.3647   -1.0845 N   0  0  0  0  0  0  0  0  0  0  0  0
   -4.5407   -0.6642   -0.2950 C   0  0  0  0  0  0  0  0  0  0  0  0
   -3.1881   -1.0880   -0.7004 C   0  0  0  0  0  0  0  0  0  0  0  0
   -0.1338    0.4571    1.1050 C   0  0  0  0  0  0  0  0  0  0  0  0
    1.1895    0.8121    0.7481 O   0  0  0  0  0  0  0  0  0  0  0  0
    1.9113   -0.3253    0.3101 C   0  0  2  0  0  0  0  0  0  0  0  0
    3.3569    0.0706    0.0855 C   0  0  0  0  0  0  0  0  0  0  0  0
    3.6641    1.2574   -0.6074 C   0  0  0  0  0  0  0  0  0  0  0  0
    4.9941    1.6168   -0.8441 C   0  0  0  0  0  0  0  0  0  0  0  0
    5.2779    2.7643   -1.5081 F   0  0  0  0  0  0  0  0  0  0  0  0
    6.0309    0.7926   -0.4012 C   0  0  0  0  0  0  0  0  0  0  0  0
    5.7398   -0.3943    0.2748 C   0  0  0  0  0  0  0  0  0  0  0  0
    4.4115   -0.7610    0.5155 C   0  0  0  0  0  0  0  0  0  0  0  0
    4.1592   -1.9280    1.1609 F   0  0  0  0  0  0  0  0  0  0  0  0
    1.2995   -0.8768   -0.9961 C   0  0  1  0  0  0  0  0  0  0  0  0
    2.0210   -2.0752   -1.4349 N   0  0  0  0  0  0  0  0  0  0  0  0
   -0.1953   -1.1855   -0.7826 C   0  0  0  0  0  0  0  0  0  0  0  0
   -1.4631    0.8271   -2.1265 H   0  0  0  0  0  0  0  0  0  0  0  0
   -0.1171    1.6553   -1.3139 H   0  0  0  0  0  0  0  0  0  0  0  0
   -1.7840    1.9615   -0.7760 H   0  0  0  0  0  0  0  0  0  0  0  0
   -2.9865    0.1335    2.2594 H   0  0  0  0  0  0  0  0  0  0  0  0
   -2.8612    1.4722    1.0423 H   0  0  0  0  0  0  0  0  0  0  0  0
   -5.7822    1.8910    1.2003 H   0  0  0  0  0  0  0  0  0  0  0  0
   -7.0940    1.0797   -0.8678 H   0  0  0  0  0  0  0  0  0  0  0  0
   -2.9750   -0.7073   -1.7181 H   0  0  0  0  0  0  0  0  0  0  0  0
   -3.1191   -2.1957   -0.6903 H   0  0  0  0  0  0  0  0  0  0  0  0
   -0.6005    1.3542    1.5612 H   0  0  0  0  0  0  0  0  0  0  0  0
   -0.1350   -0.3277    1.8966 H   0  0  0  0  0  0  0  0  0  0  0  0
    1.8735   -1.1149    1.0970 H   0  0  0  0  0  0  0  0  0  0  0  0
    2.8718    1.9029   -0.9665 H   0  0  0  0  0  0  0  0  0  0  0  0
    7.0607    1.0702   -0.5857 H   0  0  0  0  0  0  0  0  0  0  0  0
    6.5464   -1.0339    0.6095 H   0  0  0  0  0  0  0  0  0  0  0  0
    1.3913   -0.1060   -1.7932 H   0  0  0  0  0  0  0  0  0  0  0  0
    1.8853   -2.8416   -0.7355 H   0  0  0  0  0  0  0  0  0  0  0  0
    1.6109   -2.4008   -2.3404 H   0  0  0  0  0  0  0  0  0  0  0  0
   -0.6501   -1.4530   -1.7612 H   0  0  0  0  0  0  0  0  0  0  0  0
   -0.2875   -2.0790   -0.1247 H   0  0  0  0  0  0  0  0  0  0  0  0
  2  1  1  6
  2  3  1  0
  3  4  1  0
  4  5  1  0
  5  6  2  0
  6  7  1  0
  7  8  1  0
  8  9  2  0
  9 10  1  0
  2 11  1  0
 11 12  1  0
 12 13  1  0
 13 14  1  0
 14 15  2  0
 15 16  1  0
 16 17  1  0
 16 18  2  0
 18 19  1  0
 19 20  2  0
 20 21  1  0
 13 22  1  0
 22 23  1  0
 22 24  1  0
 24  2  1  0
 10  3  1  0
 20 14  1  0
  9  5  1  0
  1 25  1  0
  1 26  1  0
  1 27  1  0
  4 28  1  0
  4 29  1  0
  6 30  1  0
  7 31  1  0
 10 32  1  0
 10 33  1  0
 11 34  1  0
 11 35  1  0
 13 36  1  1
 15 37  1  0
 18 38  1  0
 19 39  1  0
 22 40  1  6
 23 41  1  0
 23 42  1  0
 24 43  1  0
 24 44  1  0
M  END
$$$$
