
     RDKit          3D

 44 46  0  0  0  0  0  0  0  0999 V2000
    0.7430    1.2811    0.8585 N   0  0  0  0  0  0  0  0  0  0  0  0
    1.4485    0.2810    1.6690 C   0  0  1  0  0  0  0  0  0  0  0  0
    0.9376   -1.1517    1.3921 C   0  0  0  0  0  0  0  0  0  0  0  0
   -0.5160   -1.2938    1.7538 C   0  0  0  0  0  0  0  0  0  0  0  0
   -0.8415   -1.3574    2.9700 O   0  0  0  0  0  0  0  0  0  0  0  0
   -1.5406   -1.2476    0.7470 N   0  0  0  0  0  0  0  0  0  0  0  0
   -1.4441   -2.0415   -0.4926 C   0  0  0  0  0  0  0  0  0  0  0  0
   -1.4449   -1.1132   -1.7217 C   0  0  0  0  0  0  0  0  0  0  0  0
   -2.4978   -0.0587   -1.5591 C   0  0  0  0  0  0  0  0  0  0  0  0
   -2.9568    0.7596   -2.5252 N   0  0  0  0  0  0  0  0  0  0  0  0
   -3.8065    1.6029   -1.9531 N   0  0  0  0  0  0  0  0  0  0  0  0
   -3.8932    1.3399   -0.6312 C   0  0  0  0  0  0  0  0  0  0  0  0
   -4.6922    2.1393    0.3529 C   0  0  0  0  0  0  0  0  0  0  0  0
   -5.6424    2.8990   -0.3049 F   0  0  0  0  0  0  0  0  0  0  0  0
   -3.8479    2.9785    1.0552 F   0  0  0  0  0  0  0  0  0  0  0  0
   -5.3329    1.2918    1.2379 F   0  0  0  0  0  0  0  0  0  0  0  0
   -3.0413    0.2937   -0.3477 C   0  0  0  0  0  0  0  0  0  0  0  0
   -2.7215   -0.3919    0.9447 C   0  0  0  0  0  0  0  0  0  0  0  0
    2.9734    0.4037    1.4609 C   0  0  0  0  0  0  0  0  0  0  0  0
    3.4102    0.1493    0.0351 C   0  0  0  0  0  0  0  0  0  0  0  0
    3.3843    1.1957   -0.9036 C   0  0  0  0  0  0  0  0  0  0  0  0
    3.7603    0.9658   -2.2304 C   0  0  0  0  0  0  0  0  0  0  0  0
    3.7274    1.9802   -3.1293 F   0  0  0  0  0  0  0  0  0  0  0  0
    4.1682   -0.3087   -2.6311 C   0  0  0  0  0  0  0  0  0  0  0  0
    4.2030   -1.3546   -1.7058 C   0  0  0  0  0  0  0  0  0  0  0  0
    3.8278   -1.1315   -0.3769 C   0  0  0  0  0  0  0  0  0  0  0  0
    3.8704   -2.1638    0.5031 F   0  0  0  0  0  0  0  0  0  0  0  0
   -0.2223    1.4077    1.2393 H   0  0  0  0  0  0  0  0  0  0  0  0
    0.6452    0.9374   -0.1244 H   0  0  0  0  0  0  0  0  0  0  0  0
    1.2605    0.5088    2.7432 H   0  0  0  0  0  0  0  0  0  0  0  0
    1.5220   -1.8772    1.9984 H   0  0  0  0  0  0  0  0  0  0  0  0
    1.1002   -1.4023    0.3252 H   0  0  0  0  0  0  0  0  0  0  0  0
   -2.3234   -2.7196   -0.5509 H   0  0  0  0  0  0  0  0  0  0  0  0
   -0.5411   -2.6872   -0.5005 H   0  0  0  0  0  0  0  0  0  0  0  0
   -1.6396   -1.7042   -2.6417 H   0  0  0  0  0  0  0  0  0  0  0  0
   -0.4537   -0.6209   -1.8145 H   0  0  0  0  0  0  0  0  0  0  0  0
   -4.3071    2.3612   -2.4673 H   0  0  0  0  0  0  0  0  0  0  0  0
   -3.5843   -1.0177    1.2554 H   0  0  0  0  0  0  0  0  0  0  0  0
   -2.5277    0.3752    1.7255 H   0  0  0  0  0  0  0  0  0  0  0  0
    3.2936    1.4251    1.7634 H   0  0  0  0  0  0  0  0  0  0  0  0
    3.4959   -0.2942    2.1509 H   0  0  0  0  0  0  0  0  0  0  0  0
    3.0677    2.1882   -0.6074 H   0  0  0  0  0  0  0  0  0  0  0  0
    4.4585   -0.4870   -3.6585 H   0  0  0  0  0  0  0  0  0  0  0  0
    4.5209   -2.3405   -2.0199 H   0  0  0  0  0  0  0  0  0  0  0  0
  1  2  1  0
  2  3  1  0
  3  4  1  0
  4  5  2  0
  4  6  1  0
  6  7  1  0
  7  8  1  0
  8  9  1  0
  9 10  2  0
 10 11  1  0
 11 12  1  0
 12 13  1  0
 13 14  1  0
 13 15  1  0
 13 16  1  0
 12 17  2  0
 17 18  1  0
  2 19  1  0
 19 20  1  0
 20 21  2  0
 21 22  1  0
 22 23  1  0
 22 24  2  0
 24 25  1  0
 25 26  2  0
 26 27  1  0
 18  6  1  0
 26 20  1  0
 17  9  1  0
  1 28  1  0
  1 29  1  0
  2 30  1  1
  3 31  1  0
  3 32  1  0
  7 33  1  0
  7 34  1  0
  8 35  1  0
  8 36  1  0
 11 37  1  0
 18 38  1  0
 18 39  1  0
 19 40  1  0
 19 41  1  0
 21 42  1  0
 24 43  1  0
 25 44  1  0
M  END
$$$$
