
     RDKit          3D

 51 55  0  0  0  0  0  0  0  0999 V2000
   -4.3060   -2.0035    1.7337 N   0  0  0  0  0  0  0  0  0  0  0  0
   -3.7684   -0.9451    0.8713 C   0  0  0  0  0  0  0  0  0  0  0  0
   -3.8953    0.4223    1.5884 C   0  0  0  0  0  0  0  0  0  0  0  0
   -3.3443    1.5424    0.6824 C   0  0  0  0  0  0  0  0  0  0  0  0
   -4.1459    1.5784   -0.6366 C   0  0  0  0  0  0  0  0  0  0  0  0
   -4.0178    0.2195   -1.3583 C   0  0  0  0  0  0  0  0  0  0  0  0
   -4.5711   -0.8982   -0.4520 C   0  0  0  0  0  0  0  0  0  0  0  0
   -2.5321   -0.0583   -1.6784 C   0  0  0  0  0  0  0  0  0  0  0  0
   -1.6941   -0.0852   -0.3661 C   0  0  0  0  0  0  0  0  0  0  0  0
   -0.2746   -0.4144   -0.6534 N   0  0  0  0  0  0  0  0  0  0  0  0
    0.5064    0.6485   -1.3057 C   0  0  0  0  0  0  0  0  0  0  0  0
    1.7858    0.0691   -1.8367 C   0  0  0  0  0  0  0  0  0  0  0  0
    1.7907   -0.4284   -2.9952 O   0  0  0  0  0  0  0  0  0  0  0  0
    2.9806    0.0187   -1.0375 N   0  0  0  0  0  0  0  0  0  0  0  0
    4.2198   -0.6134   -1.4958 C   0  0  0  0  0  0  0  0  0  0  0  0
    5.1377   -0.4250   -0.3471 C   0  0  0  0  0  0  0  0  0  0  0  0
    6.4656   -0.8396   -0.2335 C   0  0  0  0  0  0  0  0  0  0  0  0
    7.1574   -0.5552    0.9551 C   0  0  0  0  0  0  0  0  0  0  0  0
    6.5155    0.1337    2.0028 C   0  0  0  0  0  0  0  0  0  0  0  0
    7.1903    0.4045    3.1470 F   0  0  0  0  0  0  0  0  0  0  0  0
    5.1782    0.5413    1.8658 C   0  0  0  0  0  0  0  0  0  0  0  0
    4.5104    0.2475    0.6758 C   0  0  0  0  0  0  0  0  0  0  0  0
    3.1118    0.5771    0.3115 C   0  0  0  0  0  0  0  0  0  0  0  0
   -1.8540    1.2776    0.3737 C   0  0  0  0  0  0  0  0  0  0  0  0
   -2.2740   -1.2074    0.5463 C   0  0  0  0  0  0  0  0  0  0  0  0
   -3.7455   -2.0480    2.6163 H   0  0  0  0  0  0  0  0  0  0  0  0
   -4.1922   -2.9282    1.2572 H   0  0  0  0  0  0  0  0  0  0  0  0
   -4.9608    0.6278    1.8342 H   0  0  0  0  0  0  0  0  0  0  0  0
   -3.3314    0.4086    2.5475 H   0  0  0  0  0  0  0  0  0  0  0  0
   -3.4453    2.5200    1.2023 H   0  0  0  0  0  0  0  0  0  0  0  0
   -3.7661    2.3939   -1.2907 H   0  0  0  0  0  0  0  0  0  0  0  0
   -5.2158    1.7961   -0.4245 H   0  0  0  0  0  0  0  0  0  0  0  0
   -4.6005    0.2483   -2.3048 H   0  0  0  0  0  0  0  0  0  0  0  0
   -4.5010   -1.8748   -0.9805 H   0  0  0  0  0  0  0  0  0  0  0  0
   -5.6476   -0.7129   -0.2405 H   0  0  0  0  0  0  0  0  0  0  0  0
   -2.4361   -1.0295   -2.2123 H   0  0  0  0  0  0  0  0  0  0  0  0
   -2.1783    0.7327   -2.3704 H   0  0  0  0  0  0  0  0  0  0  0  0
    0.2093   -0.6427    0.2472 H   0  0  0  0  0  0  0  0  0  0  0  0
    0.7317    1.4657   -0.5887 H   0  0  0  0  0  0  0  0  0  0  0  0
   -0.0443    1.0937   -2.1573 H   0  0  0  0  0  0  0  0  0  0  0  0
    4.6101   -0.0948   -2.3973 H   0  0  0  0  0  0  0  0  0  0  0  0
    4.0552   -1.6946   -1.6906 H   0  0  0  0  0  0  0  0  0  0  0  0
    6.9521   -1.3686   -1.0427 H   0  0  0  0  0  0  0  0  0  0  0  0
    8.1879   -0.8673    1.0652 H   0  0  0  0  0  0  0  0  0  0  0  0
    4.6765    1.0713    2.6652 H   0  0  0  0  0  0  0  0  0  0  0  0
    2.4040    0.0849    1.0109 H   0  0  0  0  0  0  0  0  0  0  0  0
    2.9683    1.6783    0.2937 H   0  0  0  0  0  0  0  0  0  0  0  0
   -1.4773    2.1149   -0.2521 H   0  0  0  0  0  0  0  0  0  0  0  0
   -1.2664    1.2725    1.3182 H   0  0  0  0  0  0  0  0  0  0  0  0
   -1.6944   -1.2605    1.4952 H   0  0  0  0  0  0  0  0  0  0  0  0
   -2.1643   -2.1933    0.0414 H   0  0  0  0  0  0  0  0  0  0  0  0
  1  2  1  0
  2  3  1  0
  3  4  1  0
  4  5  1  0
  5  6  1  0
  6  7  1  0
  6  8  1  0
  8  9  1  0
  9 10  1  0
 10 11  1  0
 11 12  1  0
 12 13  2  0
 12 14  1  0
 14 15  1  0
 15 16  1  0
 16 17  2  0
 17 18  1  0
 18 19  2  0
 19 20  1  0
 19 21  1  0
 21 22  2  0
 22 23  1  0
  9 24  1  0
  9 25  1  0
  7  2  1  0
 23 14  1  0
 25  2  1  0
 24  4  1  0
 22 16  1  0
  1 26  1  0
  1 27  1  0
  3 28  1  0
  3 29  1  0
  4 30  1  0
  5 31  1  0
  5 32  1  0
  6 33  1  0
  7 34  1  0
  7 35  1  0
  8 36  1  0
  8 37  1  0
 10 38  1  0
 11 39  1  0
 11 40  1  0
 15 41  1  0
 15 42  1  0
 17 43  1  0
 18 44  1  0
 21 45  1  0
 23 46  1  0
 23 47  1  0
 24 48  1  0
 24 49  1  0
 25 50  1  0
 25 51  1  0
M  END
$$$$
