
     RDKit          3D

 52 54  0  0  0  0  0  0  0  0999 V2000
   -5.4219   -0.0531   -2.3373 C   0  0  0  0  0  0  0  0  0  0  0  0
   -4.7916   -0.6141   -1.0658 C   0  0  0  0  0  0  0  0  0  0  0  0
   -4.8982    0.3870    0.0947 C   0  0  0  0  0  0  0  0  0  0  0  0
   -4.2777   -0.1562    1.4042 C   0  0  0  0  0  0  0  0  0  0  0  0
   -2.8386    0.3261    1.7404 C   0  0  1  0  0  0  0  0  0  0  0  0
   -1.8500    0.2407    0.5620 C   0  0  0  0  0  0  0  0  0  0  0  0
   -0.4773    0.5527    0.9972 N   0  0  0  0  0  0  0  0  0  0  0  0
    0.6435    0.0972    0.2069 C   0  0  0  0  0  0  0  0  0  0  0  0
    1.8150   -0.3734    0.8279 C   0  0  0  0  0  0  0  0  0  0  0  0
    2.8960   -0.8178    0.0616 C   0  0  0  0  0  0  0  0  0  0  0  0
    2.8298   -0.7904   -1.3417 C   0  0  0  0  0  0  0  0  0  0  0  0
    3.8879   -1.2421   -2.1441 O   0  0  0  0  0  0  0  0  0  0  0  0
    5.2491   -1.1651   -1.8143 C   0  0  0  0  0  0  0  0  0  0  0  0
    6.1212   -2.1347   -2.3253 C   0  0  0  0  0  0  0  0  0  0  0  0
    7.4875   -2.0827   -2.0312 C   0  0  0  0  0  0  0  0  0  0  0  0
    7.9931   -1.0523   -1.2339 C   0  0  0  0  0  0  0  0  0  0  0  0
    7.1341   -0.0688   -0.7359 C   0  0  0  0  0  0  0  0  0  0  0  0
    5.7674   -0.1185   -1.0281 C   0  0  0  0  0  0  0  0  0  0  0  0
    1.6581   -0.3466   -1.9620 C   0  0  0  0  0  0  0  0  0  0  0  0
    0.5754    0.0982   -1.1982 C   0  0  0  0  0  0  0  0  0  0  0  0
   -0.2513    1.2386    2.2799 C   0  0  0  0  0  0  0  0  0  0  0  0
   -1.3353    2.2940    2.5154 C   0  0  0  0  0  0  0  0  0  0  0  0
   -2.7737    1.7064    2.4615 C   0  0  1  0  0  0  0  0  0  0  0  0
   -3.7025    2.6744    1.8708 N   0  0  0  0  0  0  0  0  0  0  0  0
   -4.8995    0.8765   -2.6487 H   0  0  0  0  0  0  0  0  0  0  0  0
   -6.4976    0.1684   -2.1702 H   0  0  0  0  0  0  0  0  0  0  0  0
   -5.3361   -0.7991   -3.1553 H   0  0  0  0  0  0  0  0  0  0  0  0
   -5.3138   -1.5576   -0.7952 H   0  0  0  0  0  0  0  0  0  0  0  0
   -3.7285   -0.8512   -1.2747 H   0  0  0  0  0  0  0  0  0  0  0  0
   -4.4407    1.3482   -0.2080 H   0  0  0  0  0  0  0  0  0  0  0  0
   -5.9767    0.5879    0.2785 H   0  0  0  0  0  0  0  0  0  0  0  0
   -4.9414    0.1234    2.2520 H   0  0  0  0  0  0  0  0  0  0  0  0
   -4.2838   -1.2688    1.3836 H   0  0  0  0  0  0  0  0  0  0  0  0
   -2.4670   -0.4136    2.4871 H   0  0  0  0  0  0  0  0  0  0  0  0
   -2.1422    0.9487   -0.2411 H   0  0  0  0  0  0  0  0  0  0  0  0
   -1.8744   -0.7951    0.1587 H   0  0  0  0  0  0  0  0  0  0  0  0
    1.8866   -0.4194    1.9067 H   0  0  0  0  0  0  0  0  0  0  0  0
    3.7730   -1.2037    0.5643 H   0  0  0  0  0  0  0  0  0  0  0  0
    5.7371   -2.9345   -2.9456 H   0  0  0  0  0  0  0  0  0  0  0  0
    8.1542   -2.8400   -2.4230 H   0  0  0  0  0  0  0  0  0  0  0  0
    9.0509   -1.0118   -1.0082 H   0  0  0  0  0  0  0  0  0  0  0  0
    7.5284    0.7364   -0.1295 H   0  0  0  0  0  0  0  0  0  0  0  0
    5.1214    0.6669   -0.6588 H   0  0  0  0  0  0  0  0  0  0  0  0
    1.5900   -0.3370   -3.0425 H   0  0  0  0  0  0  0  0  0  0  0  0
   -0.3101    0.4541   -1.7078 H   0  0  0  0  0  0  0  0  0  0  0  0
   -0.2545    0.4961    3.1069 H   0  0  0  0  0  0  0  0  0  0  0  0
    0.7352    1.7522    2.2751 H   0  0  0  0  0  0  0  0  0  0  0  0
   -1.2053    3.0832    1.7426 H   0  0  0  0  0  0  0  0  0  0  0  0
   -1.1680    2.7769    3.5028 H   0  0  0  0  0  0  0  0  0  0  0  0
   -3.1011    1.5284    3.5116 H   0  0  0  0  0  0  0  0  0  0  0  0
   -3.7409    3.5170    2.4896 H   0  0  0  0  0  0  0  0  0  0  0  0
   -3.3353    2.9920    0.9444 H   0  0  0  0  0  0  0  0  0  0  0  0
  1  2  1  0
  2  3  1  0
  3  4  1  0
  4  5  1  0
  5  6  1  0
  6  7  1  0
  7  8  1  0
  8  9  2  0
  9 10  1  0
 10 11  2  0
 11 12  1  0
 12 13  1  0
 13 14  2  0
 14 15  1  0
 15 16  2  0
 16 17  1  0
 17 18  2  0
 11 19  1  0
 19 20  2  0
  7 21  1  0
 21 22  1  0
 22 23  1  0
 23 24  1  0
 23  5  1  0
 20  8  1  0
 18 13  1  0
  1 25  1  0
  1 26  1  0
  1 27  1  0
  2 28  1  0
  2 29  1  0
  3 30  1  0
  3 31  1  0
  4 32  1  0
  4 33  1  0
  5 34  1  1
  6 35  1  0
  6 36  1  0
  9 37  1  0
 10 38  1  0
 14 39  1  0
 15 40  1  0
 16 41  1  0
 17 42  1  0
 18 43  1  0
 19 44  1  0
 20 45  1  0
 21 46  1  0
 21 47  1  0
 22 48  1  0
 22 49  1  0
 23 50  1  1
 24 51  1  0
 24 52  1  0
M  END
$$$$
