
     RDKit          3D

 33 35  0  0  0  0  0  0  0  0999 V2000
   -3.0305    2.3470   -1.0250 C   0  0  0  0  0  0  0  0  0  0  0  0
   -2.1172    1.3793   -0.5192 O   0  0  0  0  0  0  0  0  0  0  0  0
   -2.4865    0.1145   -0.0338 C   0  0  0  0  0  0  0  0  0  0  0  0
   -3.8275   -0.3189   -0.0191 C   0  0  0  0  0  0  0  0  0  0  0  0
   -4.1525   -1.5919    0.4571 C   0  0  0  0  0  0  0  0  0  0  0  0
   -3.1493   -2.4441    0.9214 C   0  0  0  0  0  0  0  0  0  0  0  0
   -1.8177   -2.0248    0.9143 C   0  0  0  0  0  0  0  0  0  0  0  0
   -1.4801   -0.7470    0.4437 C   0  0  0  0  0  0  0  0  0  0  0  0
   -0.1043   -0.3284    0.4462 N   0  0  0  0  0  0  0  0  0  0  0  0
    0.3307    0.7117    1.3402 C   0  0  0  0  0  0  0  0  0  0  0  0
   -0.5080    1.3116    2.0666 O   0  0  0  0  0  0  0  0  0  0  0  0
    1.7856    1.0548    1.4937 C   0  0  0  0  0  0  0  0  0  0  0  0
    2.6607    0.5467    0.3745 C   0  0  0  0  0  0  0  0  0  0  0  0
    3.9807    1.0204    0.2879 C   0  0  0  0  0  0  0  0  0  0  0  0
    4.8466    0.5339   -0.6935 C   0  0  0  0  0  0  0  0  0  0  0  0
    4.4084   -0.4389   -1.5918 C   0  0  0  0  0  0  0  0  0  0  0  0
    3.1026   -0.9275   -1.5122 C   0  0  0  0  0  0  0  0  0  0  0  0
    2.2191   -0.4421   -0.5301 C   0  0  0  0  0  0  0  0  0  0  0  0
    0.8314   -0.9392   -0.4566 C   0  0  0  0  0  0  0  0  0  0  0  0
    0.4586   -1.8822   -1.2085 O   0  0  0  0  0  0  0  0  0  0  0  0
   -2.4663    3.2506   -1.3340 H   0  0  0  0  0  0  0  0  0  0  0  0
   -3.7576    2.6344   -0.2364 H   0  0  0  0  0  0  0  0  0  0  0  0
   -3.5651    1.9417   -1.9099 H   0  0  0  0  0  0  0  0  0  0  0  0
   -4.6247    0.3182   -0.3766 H   0  0  0  0  0  0  0  0  0  0  0  0
   -5.1843   -1.9190    0.4643 H   0  0  0  0  0  0  0  0  0  0  0  0
   -3.4040   -3.4299    1.2883 H   0  0  0  0  0  0  0  0  0  0  0  0
   -1.0460   -2.6902    1.2804 H   0  0  0  0  0  0  0  0  0  0  0  0
    2.1479    0.6220    2.4503 H   0  0  0  0  0  0  0  0  0  0  0  0
    1.8821    2.1607    1.5573 H   0  0  0  0  0  0  0  0  0  0  0  0
    4.3411    1.7651    0.9871 H   0  0  0  0  0  0  0  0  0  0  0  0
    5.8607    0.9076   -0.7536 H   0  0  0  0  0  0  0  0  0  0  0  0
    5.0817   -0.8160   -2.3507 H   0  0  0  0  0  0  0  0  0  0  0  0
    2.7837   -1.6806   -2.2218 H   0  0  0  0  0  0  0  0  0  0  0  0
  1  2  1  0
  2  3  1  0
  3  4  2  0
  4  5  1  0
  5  6  2  0
  6  7  1  0
  7  8  2  0
  8  9  1  0
  9 10  1  0
 10 11  2  0
 10 12  1  0
 12 13  1  0
 13 14  2  0
 14 15  1  0
 15 16  2  0
 16 17  1  0
 17 18  2  0
 18 19  1  0
 19 20  2  0
  8  3  1  0
 19  9  1  0
 18 13  1  0
  1 21  1  0
  1 22  1  0
  1 23  1  0
  4 24  1  0
  5 25  1  0
  6 26  1  0
  7 27  1  0
 12 28  1  0
 12 29  1  0
 14 30  1  0
 15 31  1  0
 16 32  1  0
 17 33  1  0
M  END
$$$$
