
     RDKit          3D

 63 62  0  0  0  0  0  0  0  0999 V2000
   -4.2943   -5.1422    1.1145 C   0  0  0  0  0  0  0  0  0  0  0  0
   -3.3626   -4.0331    0.7257 C   0  0  0  0  0  0  0  0  0  0  0  0
   -3.0098   -3.8453   -0.6198 C   0  0  0  0  0  0  0  0  0  0  0  0
   -2.1708   -2.7895   -0.9876 C   0  0  0  0  0  0  0  0  0  0  0  0
   -1.6833   -1.9049   -0.0155 C   0  0  0  0  0  0  0  0  0  0  0  0
   -0.7991   -0.7818   -0.4102 C   0  0  0  0  0  0  0  0  0  0  0  0
    0.5970   -0.9932   -0.5873 C   0  0  0  0  0  0  0  0  0  0  0  0
    1.1847   -2.3752   -0.3180 C   0  0  0  0  0  0  0  0  0  0  0  0
    0.9287   -2.7904    1.0589 N   0  0  0  0  0  0  0  0  0  0  0  0
    1.3821    0.0928   -1.0690 C   0  0  0  0  0  0  0  0  0  0  0  0
    2.8668    0.0186   -1.3764 C   0  0  0  0  0  0  0  0  0  0  0  0
    3.7926    0.5648   -0.2469 C   0  0  0  0  0  0  0  0  0  0  0  0
    3.5988   -0.2184    1.0651 C   0  0  0  0  0  0  0  0  0  0  0  0
    3.5183    2.0622    0.0147 C   0  0  0  0  0  0  0  0  0  0  0  0
    5.2588    0.4083   -0.7008 C   0  0  0  0  0  0  0  0  0  0  0  0
    0.7863    1.2900   -1.3012 N   0  0  0  0  0  0  0  0  0  0  0  0
   -0.5341    1.5292   -1.1189 C   0  0  0  0  0  0  0  0  0  0  0  0
   -1.0177    2.9457   -1.3332 C   0  0  0  0  0  0  0  0  0  0  0  0
   -0.6087    3.8707   -0.1671 C   0  0  0  0  0  0  0  0  0  0  0  0
   -1.3061    3.4744    1.1424 C   0  0  0  0  0  0  0  0  0  0  0  0
   -0.9303    5.3300   -0.5118 C   0  0  0  0  0  0  0  0  0  0  0  0
   -1.3695    0.4860   -0.6728 C   0  0  0  0  0  0  0  0  0  0  0  0
   -2.8245    0.6993   -0.5160 C   0  0  0  0  0  0  0  0  0  0  0  0
   -3.3624    0.5879    0.6178 O   0  0  0  0  0  0  0  0  0  0  0  0
   -3.6053    1.0067   -1.6260 O   0  0  0  0  0  0  0  0  0  0  0  0
   -2.0532   -2.0774    1.3265 C   0  0  0  0  0  0  0  0  0  0  0  0
   -2.8921   -3.1330    1.6943 C   0  0  0  0  0  0  0  0  0  0  0  0
    0.6878    0.0000    0.0000 Cl  0  0  0  0  0  0  0  0  0  0  0  0
    0.6878    0.0000    0.0000 Cl  0  0  0  0  0  0  0  0  0  0  0  0
   -4.1730   -6.0123    0.4346 H   0  0  0  0  0  0  0  0  0  0  0  0
   -5.3423   -4.7810    1.0572 H   0  0  0  0  0  0  0  0  0  0  0  0
   -4.0850   -5.4846    2.1504 H   0  0  0  0  0  0  0  0  0  0  0  0
   -3.3840   -4.5158   -1.3835 H   0  0  0  0  0  0  0  0  0  0  0  0
   -1.9024   -2.6584   -2.0287 H   0  0  0  0  0  0  0  0  0  0  0  0
    2.2699   -2.4471   -0.5023 H   0  0  0  0  0  0  0  0  0  0  0  0
    0.7079   -3.1005   -1.0117 H   0  0  0  0  0  0  0  0  0  0  0  0
    1.2726   -3.7719    1.1685 H   0  0  0  0  0  0  0  0  0  0  0  0
    1.5022   -2.1979    1.6999 H   0  0  0  0  0  0  0  0  0  0  0  0
    3.1781   -0.9948   -1.6917 H   0  0  0  0  0  0  0  0  0  0  0  0
    3.0418    0.6304   -2.2897 H   0  0  0  0  0  0  0  0  0  0  0  0
    4.2968    0.1515    1.8470 H   0  0  0  0  0  0  0  0  0  0  0  0
    3.7999   -1.2994    0.9117 H   0  0  0  0  0  0  0  0  0  0  0  0
    2.5657   -0.0898    1.4502 H   0  0  0  0  0  0  0  0  0  0  0  0
    2.5122    2.2124    0.4595 H   0  0  0  0  0  0  0  0  0  0  0  0
    3.5797    2.6446   -0.9298 H   0  0  0  0  0  0  0  0  0  0  0  0
    4.2619    2.4782    0.7285 H   0  0  0  0  0  0  0  0  0  0  0  0
    5.4418    0.9768   -1.6384 H   0  0  0  0  0  0  0  0  0  0  0  0
    5.9572    0.7880    0.0763 H   0  0  0  0  0  0  0  0  0  0  0  0
    5.4996   -0.6605   -0.8886 H   0  0  0  0  0  0  0  0  0  0  0  0
   -2.1133    3.0018   -1.4902 H   0  0  0  0  0  0  0  0  0  0  0  0
   -0.5533    3.3200   -2.2718 H   0  0  0  0  0  0  0  0  0  0  0  0
    0.4909    3.7954   -0.0144 H   0  0  0  0  0  0  0  0  0  0  0  0
   -2.4104    3.4957    1.0205 H   0  0  0  0  0  0  0  0  0  0  0  0
   -1.0221    4.1753    1.9561 H   0  0  0  0  0  0  0  0  0  0  0  0
   -0.9964    2.4550    1.4546 H   0  0  0  0  0  0  0  0  0  0  0  0
   -0.6039    6.0004    0.3118 H   0  0  0  0  0  0  0  0  0  0  0  0
   -0.3918    5.6342   -1.4346 H   0  0  0  0  0  0  0  0  0  0  0  0
   -2.0219    5.4635   -0.6723 H   0  0  0  0  0  0  0  0  0  0  0  0
   -4.6037    1.1513   -1.5345 H   0  0  0  0  0  0  0  0  0  0  0  0
   -1.6908   -1.3939    2.0846 H   0  0  0  0  0  0  0  0  0  0  0  0
   -3.1740   -3.2487    2.7335 H   0  0  0  0  0  0  0  0  0  0  0  0
   -0.6878    0.0000    0.0000 H   0  0  0  0  0  0  0  0  0  0  0  0
   -0.6878    0.0000    0.0000 H   0  0  0  0  0  0  0  0  0  0  0  0
  1  2  1  0
  2  3  2  0
  3  4  1  0
  4  5  2  0
  5  6  1  0
  6  7  2  0
  7  8  1  0
  8  9  1  0
  7 10  1  0
 10 11  1  0
 11 12  1  0
 12 13  1  0
 12 14  1  0
 12 15  1  0
 10 16  2  0
 16 17  1  0
 17 18  1  0
 18 19  1  0
 19 20  1  0
 19 21  1  0
 17 22  2  0
 22 23  1  0
 23 24  2  0
 23 25  1  0
  5 26  1  0
 26 27  2  0
 27  2  1  0
 22  6  1  0
  1 30  1  0
  1 31  1  0
  1 32  1  0
  3 33  1  0
  4 34  1  0
  8 35  1  0
  8 36  1  0
  9 37  1  0
  9 38  1  0
 11 39  1  0
 11 40  1  0
 13 41  1  0
 13 42  1  0
 13 43  1  0
 14 44  1  0
 14 45  1  0
 14 46  1  0
 15 47  1  0
 15 48  1  0
 15 49  1  0
 18 50  1  0
 18 51  1  0
 19 52  1  0
 20 53  1  0
 20 54  1  0
 20 55  1  0
 21 56  1  0
 21 57  1  0
 21 58  1  0
 25 59  1  0
 26 60  1  0
 27 61  1  0
 28 62  1  0
 29 63  1  0
M  END
$$$$
