
     RDKit          3D

 38 39  0  0  0  0  0  0  0  0999 V2000
   -5.0379    3.0025    0.9207 N   0  0  0  0  0  0  0  0  0  0  0  0
   -4.4315    2.2997    0.2296 C   0  0  0  0  0  0  0  0  0  0  0  0
   -3.6594    1.4055   -0.6491 C   0  0  2  0  0  0  0  0  0  0  0  0
   -4.5566    0.3381   -1.2744 C   0  0  0  0  0  0  0  0  0  0  0  0
   -4.3492   -0.9188   -0.4329 C   0  0  2  0  0  0  0  0  0  0  0  0
   -5.3400   -1.0017    0.5322 F   0  0  0  0  0  0  0  0  0  0  0  0
   -2.9887   -0.7462    0.2342 C   0  0  0  0  0  0  0  0  0  0  0  0
   -2.6737    0.6712    0.1316 N   0  0  0  0  0  0  0  0  0  0  0  0
   -1.4793    1.2829    0.6604 C   0  0  0  0  0  0  0  0  0  0  0  0
   -1.3199    2.5294    0.5527 O   0  0  0  0  0  0  0  0  0  0  0  0
   -0.3855    0.4743    1.3090 C   0  0  0  0  0  0  0  0  0  0  0  0
    0.8150    0.2980    0.3620 C   0  0  2  0  0  0  0  0  0  0  0  0
    0.3990   -0.4372   -0.8374 N   0  0  0  0  0  0  0  0  0  0  0  0
    1.9727   -0.4194    1.0930 C   0  0  0  0  0  0  0  0  0  0  0  0
    3.2164   -0.4874    0.2439 C   0  0  0  0  0  0  0  0  0  0  0  0
    3.5337   -1.6600   -0.4628 C   0  0  0  0  0  0  0  0  0  0  0  0
    4.6750   -1.7091   -1.2692 C   0  0  0  0  0  0  0  0  0  0  0  0
    5.5035   -0.5890   -1.3799 C   0  0  0  0  0  0  0  0  0  0  0  0
    5.1907    0.5832   -0.6861 C   0  0  0  0  0  0  0  0  0  0  0  0
    4.0503    0.6368    0.1212 C   0  0  0  0  0  0  0  0  0  0  0  0
   -3.1608    2.0022   -1.4440 H   0  0  0  0  0  0  0  0  0  0  0  0
   -5.6288    0.6341   -1.3176 H   0  0  0  0  0  0  0  0  0  0  0  0
   -4.2102    0.1367   -2.3123 H   0  0  0  0  0  0  0  0  0  0  0  0
   -4.3769   -1.8342   -1.0632 H   0  0  0  0  0  0  0  0  0  0  0  0
   -2.2220   -1.3416   -0.3052 H   0  0  0  0  0  0  0  0  0  0  0  0
   -3.0324   -1.0591    1.2998 H   0  0  0  0  0  0  0  0  0  0  0  0
   -0.0563    1.0136    2.2241 H   0  0  0  0  0  0  0  0  0  0  0  0
   -0.7565   -0.5178    1.6385 H   0  0  0  0  0  0  0  0  0  0  0  0
    1.1651    1.3113    0.0589 H   0  0  0  0  0  0  0  0  0  0  0  0
    0.2804   -1.4505   -0.6054 H   0  0  0  0  0  0  0  0  0  0  0  0
    1.1491   -0.3622   -1.5619 H   0  0  0  0  0  0  0  0  0  0  0  0
    1.6552   -1.4418    1.3957 H   0  0  0  0  0  0  0  0  0  0  0  0
    2.2149    0.1286    2.0302 H   0  0  0  0  0  0  0  0  0  0  0  0
    2.8964   -2.5328   -0.3926 H   0  0  0  0  0  0  0  0  0  0  0  0
    4.9157   -2.6148   -1.8106 H   0  0  0  0  0  0  0  0  0  0  0  0
    6.3859   -0.6285   -2.0053 H   0  0  0  0  0  0  0  0  0  0  0  0
    5.8309    1.4513   -0.7757 H   0  0  0  0  0  0  0  0  0  0  0  0
    3.8153    1.5528    0.6490 H   0  0  0  0  0  0  0  0  0  0  0  0
  1  2  3  0
  2  3  1  0
  3  4  1  0
  4  5  1  0
  5  6  1  0
  5  7  1  0
  7  8  1  0
  8  9  1  0
  9 10  2  0
  9 11  1  0
 11 12  1  0
 12 13  1  0
 12 14  1  0
 14 15  1  0
 15 16  2  0
 16 17  1  0
 17 18  2  0
 18 19  1  0
 19 20  2  0
  8  3  1  0
 20 15  1  0
  3 21  1  6
  4 22  1  0
  4 23  1  0
  5 24  1  6
  7 25  1  0
  7 26  1  0
 11 27  1  0
 11 28  1  0
 12 29  1  6
 13 30  1  0
 13 31  1  0
 14 32  1  0
 14 33  1  0
 16 34  1  0
 17 35  1  0
 18 36  1  0
 19 37  1  0
 20 38  1  0
M  END
$$$$
