
     RDKit          3D

 32 33  0  0  0  0  0  0  0  0999 V2000
   -2.9459   -1.5204    1.6598 C   0  0  0  0  0  0  0  0  0  0  0  0
   -2.1330   -0.4705    0.9587 C   0  0  0  0  0  0  0  0  0  0  0  0
   -2.7569    0.6814    0.5927 N   0  0  0  0  0  0  0  0  0  0  0  0
   -2.1194    1.6898   -0.0562 C   0  0  0  0  0  0  0  0  0  0  0  0
   -2.8678    2.9050   -0.4208 C   0  0  0  0  0  0  0  0  0  0  0  0
   -4.0897    3.0023   -0.1274 O   0  0  0  0  0  0  0  0  0  0  0  0
   -2.2364    3.9509   -1.0887 O   0  0  0  0  0  0  0  0  0  0  0  0
   -0.7648    1.5541   -0.3732 C   0  0  0  0  0  0  0  0  0  0  0  0
   -0.0753    0.3919   -0.0076 C   0  0  0  0  0  0  0  0  0  0  0  0
    1.3504    0.2872   -0.3732 C   0  0  0  0  0  0  0  0  0  0  0  0
    2.3461    0.5299    0.5856 C   0  0  0  0  0  0  0  0  0  0  0  0
    3.6963    0.4408    0.2327 C   0  0  0  0  0  0  0  0  0  0  0  0
    4.0578    0.1169   -1.0788 C   0  0  0  0  0  0  0  0  0  0  0  0
    5.3673    0.0311   -1.4195 F   0  0  0  0  0  0  0  0  0  0  0  0
    3.0686   -0.1158   -2.0397 C   0  0  0  0  0  0  0  0  0  0  0  0
    1.7176   -0.0275   -1.6902 C   0  0  0  0  0  0  0  0  0  0  0  0
   -0.7531   -0.6423    0.6842 C   0  0  0  0  0  0  0  0  0  0  0  0
   -0.0485   -1.9401    1.0336 C   0  0  0  0  0  0  0  0  0  0  0  0
   -0.2541   -2.9194   -0.0283 N   0  0  0  0  0  0  0  0  0  0  0  0
   -2.8430   -2.4971    1.1423 H   0  0  0  0  0  0  0  0  0  0  0  0
   -2.6105   -1.6157    2.7136 H   0  0  0  0  0  0  0  0  0  0  0  0
   -4.0218   -1.2436    1.6602 H   0  0  0  0  0  0  0  0  0  0  0  0
   -2.7459    4.7891   -1.3421 H   0  0  0  0  0  0  0  0  0  0  0  0
   -0.2432    2.3454   -0.8991 H   0  0  0  0  0  0  0  0  0  0  0  0
    2.0754    0.7837    1.6032 H   0  0  0  0  0  0  0  0  0  0  0  0
    4.4614    0.6242    0.9760 H   0  0  0  0  0  0  0  0  0  0  0  0
    3.3479   -0.3638   -3.0557 H   0  0  0  0  0  0  0  0  0  0  0  0
    0.9585   -0.2089   -2.4413 H   0  0  0  0  0  0  0  0  0  0  0  0
   -0.4370   -2.3463    1.9911 H   0  0  0  0  0  0  0  0  0  0  0  0
    1.0387   -1.7867    1.1984 H   0  0  0  0  0  0  0  0  0  0  0  0
    0.2814   -2.6058   -0.8704 H   0  0  0  0  0  0  0  0  0  0  0  0
    0.1788   -3.8199    0.2801 H   0  0  0  0  0  0  0  0  0  0  0  0
  1  2  1  0
  2  3  2  0
  3  4  1  0
  4  5  1  0
  5  6  2  0
  5  7  1  0
  4  8  2  0
  8  9  1  0
  9 10  1  0
 10 11  2  0
 11 12  1  0
 12 13  2  0
 13 14  1  0
 13 15  1  0
 15 16  2  0
  9 17  2  0
 17 18  1  0
 18 19  1  0
 17  2  1  0
 16 10  1  0
  1 20  1  0
  1 21  1  0
  1 22  1  0
  7 23  1  0
  8 24  1  0
 11 25  1  0
 12 26  1  0
 15 27  1  0
 16 28  1  0
 18 29  1  0
 18 30  1  0
 19 31  1  0
 19 32  1  0
M  END
$$$$
