
     RDKit          3D

 49 52  0  0  0  0  0  0  0  0999 V2000
   -3.5902    2.3082   -1.2183 O   0  0  0  0  0  0  0  0  0  0  0  0
   -3.9009    1.2614   -0.5851 C   0  0  0  0  0  0  0  0  0  0  0  0
   -3.0637    0.0093   -0.7771 C   0  0  2  0  0  0  0  0  0  0  0  0
   -1.7546    0.0963   -0.0015 C   0  0  0  0  0  0  0  0  0  0  0  0
   -0.7597   -0.6817   -0.8494 C   0  0  2  0  0  0  0  0  0  0  0  0
    0.6412   -0.2110   -0.6675 N   0  0  0  0  0  0  0  0  0  0  0  0
    1.0791   -0.4018    0.7354 C   0  0  0  0  0  0  0  0  0  0  0  0
    2.4840    0.1658    0.9445 C   0  0  0  0  0  0  0  0  0  0  0  0
    3.4137   -0.4014   -0.0368 N   0  0  0  0  0  0  0  0  0  0  0  0
    4.7934   -0.6120    0.3304 C   0  0  0  0  0  0  0  0  0  0  0  0
    5.8432   -0.3091   -0.5568 C   0  0  0  0  0  0  0  0  0  0  0  0
    7.1641   -0.5275   -0.1604 C   0  0  0  0  0  0  0  0  0  0  0  0
    7.4343   -1.0392    1.1087 C   0  0  0  0  0  0  0  0  0  0  0  0
    6.3730   -1.3229    1.9690 C   0  0  0  0  0  0  0  0  0  0  0  0
    5.0930   -1.1047    1.5661 N   0  0  0  0  0  0  0  0  0  0  0  0
    2.9896   -0.4224   -1.4407 C   0  0  0  0  0  0  0  0  0  0  0  0
    1.5606   -0.9587   -1.5574 C   0  0  0  0  0  0  0  0  0  0  0  0
   -1.2843   -0.4308   -2.2649 C   0  0  0  0  0  0  0  0  0  0  0  0
   -2.7344   -0.2502   -2.1863 N   0  0  0  0  0  0  0  0  0  0  0  0
   -4.9963    1.3049    0.3518 N   0  0  0  0  0  0  0  0  0  0  0  0
   -5.2845    0.2313    1.2937 C   0  0  0  0  0  0  0  0  0  0  0  0
   -6.2706    0.7612    2.3210 C   0  0  0  0  0  0  0  0  0  0  0  0
   -7.2559    2.0647    1.5345 S   0  0  0  0  0  0  0  0  0  0  0  0
   -5.8801    2.4606    0.4187 C   0  0  0  0  0  0  0  0  0  0  0  0
   -3.6251   -0.8777   -0.4163 H   0  0  0  0  0  0  0  0  0  0  0  0
   -1.8655   -0.3503    1.0109 H   0  0  0  0  0  0  0  0  0  0  0  0
   -1.4199    1.1549    0.0923 H   0  0  0  0  0  0  0  0  0  0  0  0
   -0.8476   -1.7684   -0.6124 H   0  0  0  0  0  0  0  0  0  0  0  0
    0.4100    0.1394    1.4364 H   0  0  0  0  0  0  0  0  0  0  0  0
    1.0668   -1.4811    1.0122 H   0  0  0  0  0  0  0  0  0  0  0  0
    2.4593    1.2707    0.8249 H   0  0  0  0  0  0  0  0  0  0  0  0
    2.8066   -0.0615    1.9833 H   0  0  0  0  0  0  0  0  0  0  0  0
    5.6494    0.1091   -1.5356 H   0  0  0  0  0  0  0  0  0  0  0  0
    7.9780   -0.2952   -0.8351 H   0  0  0  0  0  0  0  0  0  0  0  0
    8.4554   -1.2102    1.4241 H   0  0  0  0  0  0  0  0  0  0  0  0
    6.5660   -1.7166    2.9579 H   0  0  0  0  0  0  0  0  0  0  0  0
    3.6540   -1.0823   -2.0400 H   0  0  0  0  0  0  0  0  0  0  0  0
    3.0389    0.6079   -1.8554 H   0  0  0  0  0  0  0  0  0  0  0  0
    1.5501   -2.0461   -1.3139 H   0  0  0  0  0  0  0  0  0  0  0  0
    1.2628   -0.8443   -2.6206 H   0  0  0  0  0  0  0  0  0  0  0  0
   -1.0580   -1.2948   -2.9254 H   0  0  0  0  0  0  0  0  0  0  0  0
   -0.8118    0.4854   -2.6898 H   0  0  0  0  0  0  0  0  0  0  0  0
   -3.0130    0.5380   -2.8165 H   0  0  0  0  0  0  0  0  0  0  0  0
   -5.7317   -0.6273    0.7477 H   0  0  0  0  0  0  0  0  0  0  0  0
   -4.3555   -0.0957    1.8088 H   0  0  0  0  0  0  0  0  0  0  0  0
   -5.7202    1.2052    3.1782 H   0  0  0  0  0  0  0  0  0  0  0  0
   -6.9309   -0.0506    2.6922 H   0  0  0  0  0  0  0  0  0  0  0  0
   -6.2882    2.6894   -0.5885 H   0  0  0  0  0  0  0  0  0  0  0  0
   -5.3236    3.3387    0.8091 H   0  0  0  0  0  0  0  0  0  0  0  0
  1  2  2  0
  2  3  1  0
  3  4  1  0
  4  5  1  0
  5  6  1  0
  6  7  1  0
  7  8  1  0
  8  9  1  0
  9 10  1  0
 10 11  2  0
 11 12  1  0
 12 13  2  0
 13 14  1  0
 14 15  2  0
  9 16  1  0
 16 17  1  0
  5 18  1  0
 18 19  1  0
  2 20  1  0
 20 21  1  0
 21 22  1  0
 22 23  1  0
 23 24  1  0
 19  3  1  0
 24 20  1  0
 17  6  1  0
 15 10  1  0
  3 25  1  1
  4 26  1  0
  4 27  1  0
  5 28  1  1
  7 29  1  0
  7 30  1  0
  8 31  1  0
  8 32  1  0
 11 33  1  0
 12 34  1  0
 13 35  1  0
 14 36  1  0
 16 37  1  0
 16 38  1  0
 17 39  1  0
 17 40  1  0
 18 41  1  0
 18 42  1  0
 19 43  1  0
 21 44  1  0
 21 45  1  0
 22 46  1  0
 22 47  1  0
 24 48  1  0
 24 49  1  0
M  END
$$$$
