
     RDKit          3D

 40 42  0  0  0  0  0  0  0  0999 V2000
   -2.5526    2.7315    1.0230 N   0  0  0  0  0  0  0  0  0  0  0  0
   -1.9452    2.5041   -0.2841 C   0  0  0  0  0  0  0  0  0  0  0  0
   -0.6533    1.7248   -0.1290 C   0  0  0  0  0  0  0  0  0  0  0  0
    0.4930    2.3272    0.4427 C   0  0  0  0  0  0  0  0  0  0  0  0
    0.5008    3.6948    0.8693 N   0  0  0  0  0  0  0  0  0  0  0  0
    1.6247    1.5948    0.6095 N   0  0  0  0  0  0  0  0  0  0  0  0
    1.6959    0.2876    0.2511 C   0  0  0  0  0  0  0  0  0  0  0  0
    2.9482   -0.4810    0.4560 C   0  0  0  0  0  0  0  0  0  0  0  0
    4.0912    0.1398    0.9972 C   0  0  0  0  0  0  0  0  0  0  0  0
    5.2692   -0.5884    1.1902 C   0  0  0  0  0  0  0  0  0  0  0  0
    5.3219   -1.9409    0.8473 C   0  0  0  0  0  0  0  0  0  0  0  0
    4.1964   -2.5688    0.3105 C   0  0  0  0  0  0  0  0  0  0  0  0
    3.0154   -1.8463    0.1148 C   0  0  0  0  0  0  0  0  0  0  0  0
    0.6057   -0.3109   -0.2907 N   0  0  0  0  0  0  0  0  0  0  0  0
   -0.5590    0.3579   -0.4888 C   0  0  0  0  0  0  0  0  0  0  0  0
   -1.6842   -0.3876   -1.0905 C   0  0  0  0  0  0  0  0  0  0  0  0
   -2.0198   -0.1232   -2.4288 C   0  0  0  0  0  0  0  0  0  0  0  0
   -3.0444   -0.8313   -3.0560 C   0  0  0  0  0  0  0  0  0  0  0  0
   -3.7323   -1.8244   -2.3616 C   0  0  0  0  0  0  0  0  0  0  0  0
   -3.4011   -2.1123   -1.0360 C   0  0  0  0  0  0  0  0  0  0  0  0
   -2.3838   -1.3948   -0.3745 C   0  0  0  0  0  0  0  0  0  0  0  0
   -2.0178   -1.7534    1.0534 C   0  0  0  0  0  0  0  0  0  0  0  0
   -2.9962   -2.5322    1.6474 F   0  0  0  0  0  0  0  0  0  0  0  0
   -1.8679   -0.6098    1.8165 F   0  0  0  0  0  0  0  0  0  0  0  0
   -0.8304   -2.4616    1.0584 F   0  0  0  0  0  0  0  0  0  0  0  0
   -2.9289    1.8193    1.3695 H   0  0  0  0  0  0  0  0  0  0  0  0
   -3.3772    3.3600    0.8867 H   0  0  0  0  0  0  0  0  0  0  0  0
   -2.6766    1.9923   -0.9421 H   0  0  0  0  0  0  0  0  0  0  0  0
   -1.7321    3.4779   -0.7748 H   0  0  0  0  0  0  0  0  0  0  0  0
    1.3724    4.1035    1.2740 H   0  0  0  0  0  0  0  0  0  0  0  0
   -0.3388    4.3104    0.8176 H   0  0  0  0  0  0  0  0  0  0  0  0
    4.0778    1.1870    1.2714 H   0  0  0  0  0  0  0  0  0  0  0  0
    6.1425   -0.1028    1.6064 H   0  0  0  0  0  0  0  0  0  0  0  0
    6.2349   -2.5024    0.9978 H   0  0  0  0  0  0  0  0  0  0  0  0
    4.2383   -3.6175    0.0456 H   0  0  0  0  0  0  0  0  0  0  0  0
    2.1571   -2.3582   -0.3019 H   0  0  0  0  0  0  0  0  0  0  0  0
   -1.4829    0.6343   -2.9873 H   0  0  0  0  0  0  0  0  0  0  0  0
   -3.2987   -0.6164   -4.0859 H   0  0  0  0  0  0  0  0  0  0  0  0
   -4.5197   -2.3800   -2.8546 H   0  0  0  0  0  0  0  0  0  0  0  0
   -3.9425   -2.9030   -0.5330 H   0  0  0  0  0  0  0  0  0  0  0  0
  1  2  1  0
  2  3  1  0
  3  4  2  0
  4  5  1  0
  4  6  1  0
  6  7  2  0
  7  8  1  0
  8  9  2  0
  9 10  1  0
 10 11  2  0
 11 12  1  0
 12 13  2  0
  7 14  1  0
 14 15  2  0
 15 16  1  0
 16 17  2  0
 17 18  1  0
 18 19  2  0
 19 20  1  0
 20 21  2  0
 21 22  1  0
 22 23  1  0
 22 24  1  0
 22 25  1  0
 15  3  1  0
 21 16  1  0
 13  8  1  0
  1 26  1  0
  1 27  1  0
  2 28  1  0
  2 29  1  0
  5 30  1  0
  5 31  1  0
  9 32  1  0
 10 33  1  0
 11 34  1  0
 12 35  1  0
 13 36  1  0
 17 37  1  0
 18 38  1  0
 19 39  1  0
 20 40  1  0
M  END
$$$$
