
     RDKit          3D

 52 55  0  0  0  0  0  0  0  0999 V2000
    2.0438    0.5786    0.9360 N   0  0  0  0  0  0  0  0  0  0  0  0
    1.9938   -0.5759    0.0295 C   0  0  1  0  0  0  0  0  0  0  0  0
    0.7098   -0.5798   -0.8337 C   0  0  0  0  0  0  0  0  0  0  0  0
   -0.5178   -0.8198    0.0101 C   0  0  0  0  0  0  0  0  0  0  0  0
   -0.8001   -2.0116    0.3137 O   0  0  0  0  0  0  0  0  0  0  0  0
   -1.3341    0.2634    0.5168 N   0  0  0  0  0  0  0  0  0  0  0  0
   -1.3931    1.5396   -0.2199 C   0  0  0  0  0  0  0  0  0  0  0  0
   -2.3885    2.5253    0.3418 C   0  0  0  0  0  0  0  0  0  0  0  0
   -1.9883    3.6728    0.6752 O   0  0  0  0  0  0  0  0  0  0  0  0
   -3.7900    2.2238    0.4317 N   0  0  0  0  0  0  0  0  0  0  0  0
   -4.3482    0.8972    0.4534 C   0  0  0  0  0  0  0  0  0  0  0  0
   -5.6406    0.6995   -0.0571 C   0  0  0  0  0  0  0  0  0  0  0  0
   -6.2429   -0.5693   -0.0306 C   0  0  0  0  0  0  0  0  0  0  0  0
   -7.6064   -0.7790   -0.6404 C   0  0  0  0  0  0  0  0  0  0  0  0
   -8.3871    0.3543   -0.4909 F   0  0  0  0  0  0  0  0  0  0  0  0
   -7.4648   -1.0540   -1.9876 F   0  0  0  0  0  0  0  0  0  0  0  0
   -8.2590   -1.8365   -0.0305 F   0  0  0  0  0  0  0  0  0  0  0  0
   -5.5195   -1.6559    0.4844 C   0  0  0  0  0  0  0  0  0  0  0  0
   -4.2427   -1.4676    1.0155 C   0  0  0  0  0  0  0  0  0  0  0  0
   -3.6560   -0.1930    1.0258 C   0  0  0  0  0  0  0  0  0  0  0  0
   -2.2818   -0.0100    1.6048 C   0  0  0  0  0  0  0  0  0  0  0  0
    3.2753   -0.6542   -0.8444 C   0  0  1  0  0  0  0  0  0  0  0  0
    3.5411    0.6068   -1.7118 C   0  0  0  0  0  0  0  0  0  0  0  0
    4.7710    1.3198   -1.1207 C   0  0  0  0  0  0  0  0  0  0  0  0
    5.3195    0.3410   -0.1554 C   0  0  0  0  0  0  0  0  0  0  0  0
    6.5165    0.4534    0.5560 C   0  0  0  0  0  0  0  0  0  0  0  0
    6.8826   -0.5810    1.4309 C   0  0  0  0  0  0  0  0  0  0  0  0
    8.0413   -0.4950    2.1298 F   0  0  0  0  0  0  0  0  0  0  0  0
    6.0513   -1.7066    1.5806 C   0  0  0  0  0  0  0  0  0  0  0  0
    6.4085   -2.7072    2.4230 F   0  0  0  0  0  0  0  0  0  0  0  0
    4.8507   -1.7965    0.8593 C   0  0  0  0  0  0  0  0  0  0  0  0
    4.5000   -0.7502   -0.0008 C   0  0  0  0  0  0  0  0  0  0  0  0
    1.8535    1.4592    0.4076 H   0  0  0  0  0  0  0  0  0  0  0  0
    1.2929    0.4782    1.6566 H   0  0  0  0  0  0  0  0  0  0  0  0
    1.9747   -1.5005    0.6509 H   0  0  0  0  0  0  0  0  0  0  0  0
    0.7774   -1.4046   -1.5766 H   0  0  0  0  0  0  0  0  0  0  0  0
    0.6209    0.3528   -1.4225 H   0  0  0  0  0  0  0  0  0  0  0  0
   -1.6656    1.3401   -1.2784 H   0  0  0  0  0  0  0  0  0  0  0  0
   -0.3901    2.0146   -0.2049 H   0  0  0  0  0  0  0  0  0  0  0  0
   -4.4508    3.0332    0.4653 H   0  0  0  0  0  0  0  0  0  0  0  0
   -6.1708    1.5397   -0.4890 H   0  0  0  0  0  0  0  0  0  0  0  0
   -5.9424   -2.6527    0.4787 H   0  0  0  0  0  0  0  0  0  0  0  0
   -3.7110   -2.3206    1.4190 H   0  0  0  0  0  0  0  0  0  0  0  0
   -1.9688   -0.9007    2.1928 H   0  0  0  0  0  0  0  0  0  0  0  0
   -2.2834    0.8293    2.3333 H   0  0  0  0  0  0  0  0  0  0  0  0
    3.2230   -1.5538   -1.4975 H   0  0  0  0  0  0  0  0  0  0  0  0
    2.6787    1.3023   -1.7606 H   0  0  0  0  0  0  0  0  0  0  0  0
    3.7719    0.2887   -2.7525 H   0  0  0  0  0  0  0  0  0  0  0  0
    4.4683    2.2447   -0.5842 H   0  0  0  0  0  0  0  0  0  0  0  0
    5.5169    1.5571   -1.9097 H   0  0  0  0  0  0  0  0  0  0  0  0
    7.1521    1.3208    0.4324 H   0  0  0  0  0  0  0  0  0  0  0  0
    4.2082   -2.6605    0.9691 H   0  0  0  0  0  0  0  0  0  0  0  0
  1  2  1  0
  2  3  1  0
  3  4  1  0
  4  5  2  0
  4  6  1  0
  6  7  1  0
  7  8  1  0
  8  9  2  0
  8 10  1  0
 10 11  1  0
 11 12  2  0
 12 13  1  0
 13 14  1  0
 14 15  1  0
 14 16  1  0
 14 17  1  0
 13 18  2  0
 18 19  1  0
 19 20  2  0
 20 21  1  0
  2 22  1  0
 22 23  1  0
 23 24  1  0
 24 25  1  0
 25 26  2  0
 26 27  1  0
 27 28  1  0
 27 29  2  0
 29 30  1  0
 29 31  1  0
 31 32  2  0
 21  6  1  0
 32 22  1  0
 20 11  1  0
 32 25  1  0
  1 33  1  0
  1 34  1  0
  2 35  1  1
  3 36  1  0
  3 37  1  0
  7 38  1  0
  7 39  1  0
 10 40  1  0
 12 41  1  0
 18 42  1  0
 19 43  1  0
 21 44  1  0
 21 45  1  0
 22 46  1  6
 23 47  1  0
 23 48  1  0
 24 49  1  0
 24 50  1  0
 26 51  1  0
 31 52  1  0
M  END
$$$$
