
     RDKit          3D

 66 69  0  0  0  0  0  0  0  0999 V2000
    2.8544   -0.4891   -2.1904 N   0  0  0  0  0  0  0  0  0  0  0  0
    3.2864    0.9110   -2.2747 C   0  0  1  0  0  0  0  0  0  0  0  0
    2.4181    1.8572   -1.4185 C   0  0  0  0  0  0  0  0  0  0  0  0
    0.9720    1.8033   -1.8401 C   0  0  0  0  0  0  0  0  0  0  0  0
    0.6279    2.4069   -2.8922 O   0  0  0  0  0  0  0  0  0  0  0  0
   -0.0011    1.0193   -1.1221 N   0  0  0  0  0  0  0  0  0  0  0  0
   -0.8805    0.1190   -1.8785 C   0  0  0  0  0  0  0  0  0  0  0  0
   -2.2286   -0.0186   -1.1742 C   0  0  0  0  0  0  0  0  0  0  0  0
   -2.0140   -0.4201    0.2317 N   0  0  0  0  0  0  0  0  0  0  0  0
   -3.2533   -0.8394    0.9444 C   0  0  0  0  0  0  0  0  0  0  0  0
   -4.3653    0.2068    0.8500 C   0  0  0  0  0  0  0  0  0  0  0  0
   -4.4996    1.1734    1.8634 C   0  0  0  0  0  0  0  0  0  0  0  0
   -5.4968    2.1500    1.7859 C   0  0  0  0  0  0  0  0  0  0  0  0
   -6.3701    2.1754    0.6961 C   0  0  0  0  0  0  0  0  0  0  0  0
   -7.3361    3.1239    0.6231 F   0  0  0  0  0  0  0  0  0  0  0  0
   -6.2468    1.2241   -0.3190 C   0  0  0  0  0  0  0  0  0  0  0  0
   -5.2510    0.2460   -0.2465 C   0  0  0  0  0  0  0  0  0  0  0  0
   -3.7086   -2.2403    0.5358 C   0  0  0  0  0  0  0  0  0  0  0  0
   -4.9571   -2.7271    0.9760 C   0  0  0  0  0  0  0  0  0  0  0  0
   -5.3691   -4.0252    0.6620 C   0  0  0  0  0  0  0  0  0  0  0  0
   -4.5305   -4.8691   -0.0676 C   0  0  0  0  0  0  0  0  0  0  0  0
   -4.9305   -6.1293   -0.3680 F   0  0  0  0  0  0  0  0  0  0  0  0
   -3.2716   -4.4209   -0.4707 C   0  0  0  0  0  0  0  0  0  0  0  0
   -2.8541   -3.1235   -0.1593 C   0  0  0  0  0  0  0  0  0  0  0  0
   -1.2825    0.6392    0.9531 C   0  0  0  0  0  0  0  0  0  0  0  0
    0.1032    0.8380    0.3323 C   0  0  0  0  0  0  0  0  0  0  0  0
    4.7473    1.0455   -1.9069 C   0  0  0  0  0  0  0  0  0  0  0  0
    5.5246    1.5779   -2.7457 O   0  0  0  0  0  0  0  0  0  0  0  0
    5.2684    0.6667   -0.6168 N   0  0  0  0  0  0  0  0  0  0  0  0
    4.7195   -0.3711    0.2418 C   0  0  0  0  0  0  0  0  0  0  0  0
    5.7377   -0.5681    1.3579 C   0  0  0  0  0  0  0  0  0  0  0  0
    6.6474    0.6688    1.3274 C   0  0  0  0  0  0  0  0  0  0  0  0
    6.2492    1.7013    2.4010 C   0  0  0  0  0  0  0  0  0  0  0  0
    4.9402    2.1161    2.2208 F   0  0  0  0  0  0  0  0  0  0  0  0
    6.3756    1.1430    3.6608 F   0  0  0  0  0  0  0  0  0  0  0  0
    7.0846    2.8021    2.3268 F   0  0  0  0  0  0  0  0  0  0  0  0
    6.5008    1.2303   -0.0914 C   0  0  0  0  0  0  0  0  0  0  0  0
    2.0874   -0.6437   -2.8847 H   0  0  0  0  0  0  0  0  0  0  0  0
    2.4413   -0.6878   -1.2514 H   0  0  0  0  0  0  0  0  0  0  0  0
    3.1839    1.2389   -3.3360 H   0  0  0  0  0  0  0  0  0  0  0  0
    2.5343    1.6173   -0.3452 H   0  0  0  0  0  0  0  0  0  0  0  0
    2.7811    2.9002   -1.5501 H   0  0  0  0  0  0  0  0  0  0  0  0
   -0.3995   -0.8802   -1.9552 H   0  0  0  0  0  0  0  0  0  0  0  0
   -1.0533    0.5012   -2.9079 H   0  0  0  0  0  0  0  0  0  0  0  0
   -2.7646    0.9550   -1.2354 H   0  0  0  0  0  0  0  0  0  0  0  0
   -2.8265   -0.7830   -1.7144 H   0  0  0  0  0  0  0  0  0  0  0  0
   -3.0048   -0.9628    2.0230 H   0  0  0  0  0  0  0  0  0  0  0  0
   -3.8294    1.1732    2.7140 H   0  0  0  0  0  0  0  0  0  0  0  0
   -5.5904    2.8884    2.5718 H   0  0  0  0  0  0  0  0  0  0  0  0
   -6.9224    1.2439   -1.1644 H   0  0  0  0  0  0  0  0  0  0  0  0
   -5.1732   -0.4806   -1.0448 H   0  0  0  0  0  0  0  0  0  0  0  0
   -5.6154   -2.1015    1.5656 H   0  0  0  0  0  0  0  0  0  0  0  0
   -6.3369   -4.3788    0.9936 H   0  0  0  0  0  0  0  0  0  0  0  0
   -2.6119   -5.0826   -1.0173 H   0  0  0  0  0  0  0  0  0  0  0  0
   -1.8604   -2.8214   -0.4618 H   0  0  0  0  0  0  0  0  0  0  0  0
   -1.1416    0.3585    2.0199 H   0  0  0  0  0  0  0  0  0  0  0  0
   -1.8429    1.6004    0.9179 H   0  0  0  0  0  0  0  0  0  0  0  0
    0.5617    1.7343    0.8034 H   0  0  0  0  0  0  0  0  0  0  0  0
    0.7389   -0.0478    0.5484 H   0  0  0  0  0  0  0  0  0  0  0  0
    3.7506   -0.0424    0.6705 H   0  0  0  0  0  0  0  0  0  0  0  0
    4.5927   -1.3185   -0.3246 H   0  0  0  0  0  0  0  0  0  0  0  0
    6.3481   -1.4725    1.1398 H   0  0  0  0  0  0  0  0  0  0  0  0
    5.2349   -0.7176    2.3384 H   0  0  0  0  0  0  0  0  0  0  0  0
    7.7033    0.3660    1.5072 H   0  0  0  0  0  0  0  0  0  0  0  0
    7.3542    0.8994   -0.7227 H   0  0  0  0  0  0  0  0  0  0  0  0
    6.4510    2.3412   -0.1054 H   0  0  0  0  0  0  0  0  0  0  0  0
  1  2  1  0
  2  3  1  0
  3  4  1  0
  4  5  2  0
  4  6  1  0
  6  7  1  0
  7  8  1  0
  8  9  1  0
  9 10  1  0
 10 11  1  0
 11 12  2  0
 12 13  1  0
 13 14  2  0
 14 15  1  0
 14 16  1  0
 16 17  2  0
 10 18  1  0
 18 19  2  0
 19 20  1  0
 20 21  2  0
 21 22  1  0
 21 23  1  0
 23 24  2  0
  9 25  1  0
 25 26  1  0
  2 27  1  0
 27 28  2  0
 27 29  1  0
 29 30  1  0
 30 31  1  0
 31 32  1  0
 32 33  1  0
 33 34  1  0
 33 35  1  0
 33 36  1  0
 32 37  1  0
 26  6  1  0
 37 29  1  0
 17 11  1  0
 24 18  1  0
  1 38  1  0
  1 39  1  0
  2 40  1  6
  3 41  1  0
  3 42  1  0
  7 43  1  0
  7 44  1  0
  8 45  1  0
  8 46  1  0
 10 47  1  0
 12 48  1  0
 13 49  1  0
 16 50  1  0
 17 51  1  0
 19 52  1  0
 20 53  1  0
 23 54  1  0
 24 55  1  0
 25 56  1  0
 25 57  1  0
 26 58  1  0
 26 59  1  0
 30 60  1  0
 30 61  1  0
 31 62  1  0
 31 63  1  0
 32 64  1  0
 37 65  1  0
 37 66  1  0
M  END
$$$$
