
     RDKit          3D

 48 48  0  0  0  0  0  0  0  0999 V2000
   -0.0093   -1.9443   -0.2293 C   0  0  0  0  0  0  0  0  0  0  0  0
   -0.7506   -0.8329   -0.9942 C   0  0  1  0  0  0  0  0  0  0  0  0
   -1.9361   -0.2754   -0.1964 C   0  0  0  0  0  0  0  0  0  0  0  0
   -1.7371    0.0998    1.1512 C   0  0  0  0  0  0  0  0  0  0  0  0
   -2.7756    0.6248    1.9162 C   0  0  0  0  0  0  0  0  0  0  0  0
   -4.0376    0.7906    1.3590 C   0  0  0  0  0  0  0  0  0  0  0  0
   -5.0474    1.2959    2.1099 F   0  0  0  0  0  0  0  0  0  0  0  0
   -4.2661    0.4392    0.0300 C   0  0  0  0  0  0  0  0  0  0  0  0
   -3.2305   -0.0826   -0.7751 C   0  0  0  0  0  0  0  0  0  0  0  0
   -3.5445   -0.4611   -2.2138 C   0  0  0  0  0  0  0  0  0  0  0  0
   -3.4613   -1.8339   -2.3609 F   0  0  0  0  0  0  0  0  0  0  0  0
   -4.8198   -0.0692   -2.5846 F   0  0  0  0  0  0  0  0  0  0  0  0
   -2.6547    0.1518   -3.0765 F   0  0  0  0  0  0  0  0  0  0  0  0
    0.1829    0.3003   -1.5182 C   0  0  2  0  0  0  0  0  0  0  0  0
    1.1705   -0.2226   -2.4643 N   0  0  0  0  0  0  0  0  0  0  0  0
    0.8442    1.1012   -0.4087 C   0  0  0  0  0  0  0  0  0  0  0  0
    0.2833    2.1710   -0.0447 O   0  0  0  0  0  0  0  0  0  0  0  0
    2.0315    0.6671    0.2888 N   0  0  0  0  0  0  0  0  0  0  0  0
    3.0768   -0.1817   -0.2643 C   0  0  0  0  0  0  0  0  0  0  0  0
    4.0855   -0.3811    0.8582 C   0  0  0  0  0  0  0  0  0  0  0  0
    3.8127    0.7350    1.8609 C   0  0  2  0  0  0  0  0  0  0  0  0
    3.9657    0.2836    3.1611 F   0  0  0  0  0  0  0  0  0  0  0  0
    2.3809    1.1855    1.6022 C   0  0  0  0  0  0  0  0  0  0  0  0
    0.7443    0.0063   -1.5506 O   0  0  0  0  0  0  0  0  0  0  0  0
    0.4687    0.0130   -0.3210 C   0  0  0  0  0  0  0  0  0  0  0  0
    1.4929   -0.0454    0.6194 O   0  0  0  0  0  0  0  0  0  0  0  0
   -0.9573    0.0234    0.1257 C   0  0  0  0  0  0  0  0  0  0  0  0
   -1.4552   -1.2655    0.1000 F   0  0  0  0  0  0  0  0  0  0  0  0
   -1.7108    0.8208   -0.7168 F   0  0  0  0  0  0  0  0  0  0  0  0
   -1.0458    0.5198    1.4134 F   0  0  0  0  0  0  0  0  0  0  0  0
   -0.7373   -2.6987    0.1387 H   0  0  0  0  0  0  0  0  0  0  0  0
    0.5562   -1.5520    0.6387 H   0  0  0  0  0  0  0  0  0  0  0  0
    0.6993   -2.4658   -0.9067 H   0  0  0  0  0  0  0  0  0  0  0  0
   -1.1389   -1.3542   -1.8895 H   0  0  0  0  0  0  0  0  0  0  0  0
   -0.7700   -0.0052    1.6220 H   0  0  0  0  0  0  0  0  0  0  0  0
   -2.5984    0.9038    2.9471 H   0  0  0  0  0  0  0  0  0  0  0  0
   -5.2641    0.5798   -0.3638 H   0  0  0  0  0  0  0  0  0  0  0  0
   -0.4635    1.0116   -2.0825 H   0  0  0  0  0  0  0  0  0  0  0  0
    1.6929    0.5866   -2.8733 H   0  0  0  0  0  0  0  0  0  0  0  0
    0.6643   -0.6680   -3.2640 H   0  0  0  0  0  0  0  0  0  0  0  0
    2.6753   -1.1637   -0.5830 H   0  0  0  0  0  0  0  0  0  0  0  0
    3.5575    0.3323   -1.1245 H   0  0  0  0  0  0  0  0  0  0  0  0
    5.1292   -0.3375    0.4779 H   0  0  0  0  0  0  0  0  0  0  0  0
    3.9135   -1.3695    1.3392 H   0  0  0  0  0  0  0  0  0  0  0  0
    4.5124    1.5801    1.6774 H   0  0  0  0  0  0  0  0  0  0  0  0
    2.3217    2.2958    1.6154 H   0  0  0  0  0  0  0  0  0  0  0  0
    1.6865    0.7638    2.3609 H   0  0  0  0  0  0  0  0  0  0  0  0
    2.4633   -0.0723    0.3298 H   0  0  0  0  0  0  0  0  0  0  0  0
  1  2  1  0
  2  3  1  0
  3  4  2  0
  4  5  1  0
  5  6  2  0
  6  7  1  0
  6  8  1  0
  8  9  2  0
  9 10  1  0
 10 11  1  0
 10 12  1  0
 10 13  1  0
  2 14  1  0
 14 15  1  0
 14 16  1  0
 16 17  2  0
 16 18  1  0
 18 19  1  0
 19 20  1  0
 20 21  1  0
 21 22  1  0
 21 23  1  0
 24 25  2  0
 25 26  1  0
 25 27  1  0
 27 28  1  0
 27 29  1  0
 27 30  1  0
  9  3  1  0
 23 18  1  0
  1 31  1  0
  1 32  1  0
  1 33  1  0
  2 34  1  6
  4 35  1  0
  5 36  1  0
  8 37  1  0
 14 38  1  6
 15 39  1  0
 15 40  1  0
 19 41  1  0
 19 42  1  0
 20 43  1  0
 20 44  1  0
 21 45  1  6
 23 46  1  0
 23 47  1  0
 26 48  1  0
M  END
$$$$
