
     RDKit          3D

 44 47  0  0  0  0  0  0  0  0999 V2000
   -2.1444    2.2492   -2.0135 N   0  0  0  0  0  0  0  0  0  0  0  0
   -1.9422    1.0214   -1.2437 C   0  0  1  0  0  0  0  0  0  0  0  0
   -0.4526    0.7288   -1.0535 C   0  0  0  0  0  0  0  0  0  0  0  0
   -0.3072    0.2781    0.3235 N   0  0  0  0  0  0  0  0  0  0  0  0
    0.9093   -0.2526    0.8851 C   0  0  0  0  0  0  0  0  0  0  0  0
    2.1031   -0.2869    0.1464 C   0  0  0  0  0  0  0  0  0  0  0  0
    3.2590   -0.8174    0.7430 C   0  0  0  0  0  0  0  0  0  0  0  0
    4.5539   -0.8812    0.0175 C   0  0  0  0  0  0  0  0  0  0  0  0
    4.6046   -1.0290   -1.3833 C   0  0  0  0  0  0  0  0  0  0  0  0
    5.8348   -1.0947   -2.0448 C   0  0  0  0  0  0  0  0  0  0  0  0
    7.0260   -1.0204   -1.3204 C   0  0  0  0  0  0  0  0  0  0  0  0
    6.9906   -0.8856    0.0691 C   0  0  0  0  0  0  0  0  0  0  0  0
    8.1480   -0.8175    0.7721 F   0  0  0  0  0  0  0  0  0  0  0  0
    5.7631   -0.8203    0.7363 C   0  0  0  0  0  0  0  0  0  0  0  0
    3.1917   -1.2662    2.0260 N   0  0  0  0  0  0  0  0  0  0  0  0
    2.0333   -1.2245    2.7311 C   0  0  0  0  0  0  0  0  0  0  0  0
    0.9084   -0.7241    2.1614 N   0  0  0  0  0  0  0  0  0  0  0  0
   -1.5305    0.4172    1.0965 C   0  0  0  0  0  0  0  0  0  0  0  0
   -2.5092    1.1589    0.1818 C   0  0  2  0  0  0  0  0  0  0  0  0
   -3.9450    0.6725    0.3082 C   0  0  0  0  0  0  0  0  0  0  0  0
   -4.9488    1.5846    0.6843 C   0  0  0  0  0  0  0  0  0  0  0  0
   -6.2791    1.1715    0.8029 C   0  0  0  0  0  0  0  0  0  0  0  0
   -7.2333    2.0635    1.1672 F   0  0  0  0  0  0  0  0  0  0  0  0
   -6.6253   -0.1569    0.5458 C   0  0  0  0  0  0  0  0  0  0  0  0
   -7.9155   -0.5583    0.6604 F   0  0  0  0  0  0  0  0  0  0  0  0
   -5.6417   -1.0734    0.1688 C   0  0  0  0  0  0  0  0  0  0  0  0
   -4.3085   -0.6685    0.0476 C   0  0  0  0  0  0  0  0  0  0  0  0
   -3.3812   -1.5873   -0.3243 F   0  0  0  0  0  0  0  0  0  0  0  0
   -1.7590    2.0969   -2.9741 H   0  0  0  0  0  0  0  0  0  0  0  0
   -3.1742    2.3906   -2.1312 H   0  0  0  0  0  0  0  0  0  0  0  0
   -2.4079    0.1657   -1.7822 H   0  0  0  0  0  0  0  0  0  0  0  0
    0.1633    1.6422   -1.2068 H   0  0  0  0  0  0  0  0  0  0  0  0
   -0.1274   -0.0677   -1.7579 H   0  0  0  0  0  0  0  0  0  0  0  0
    2.1383    0.1163   -0.8556 H   0  0  0  0  0  0  0  0  0  0  0  0
    3.6994   -1.1188   -1.9688 H   0  0  0  0  0  0  0  0  0  0  0  0
    5.8640   -1.2102   -3.1206 H   0  0  0  0  0  0  0  0  0  0  0  0
    7.9761   -1.0724   -1.8364 H   0  0  0  0  0  0  0  0  0  0  0  0
    5.7588   -0.7094    1.8136 H   0  0  0  0  0  0  0  0  0  0  0  0
    2.0067   -1.5903    3.7482 H   0  0  0  0  0  0  0  0  0  0  0  0
   -1.3366    1.0124    2.0158 H   0  0  0  0  0  0  0  0  0  0  0  0
   -1.8943   -0.5889    1.3932 H   0  0  0  0  0  0  0  0  0  0  0  0
   -2.4522    2.2354    0.4671 H   0  0  0  0  0  0  0  0  0  0  0  0
   -4.7034    2.6199    0.8861 H   0  0  0  0  0  0  0  0  0  0  0  0
   -5.9130   -2.1021   -0.0314 H   0  0  0  0  0  0  0  0  0  0  0  0
  1  2  1  0
  2  3  1  0
  3  4  1  0
  4  5  1  0
  5  6  2  0
  6  7  1  0
  7  8  1  0
  8  9  2  0
  9 10  1  0
 10 11  2  0
 11 12  1  0
 12 13  1  0
 12 14  2  0
  7 15  2  0
 15 16  1  0
 16 17  2  0
  4 18  1  0
 18 19  1  0
 19 20  1  0
 20 21  2  0
 21 22  1  0
 22 23  1  0
 22 24  2  0
 24 25  1  0
 24 26  1  0
 26 27  2  0
 27 28  1  0
 19  2  1  0
 27 20  1  0
 17  5  1  0
 14  8  1  0
  1 29  1  0
  1 30  1  0
  2 31  1  6
  3 32  1  0
  3 33  1  0
  6 34  1  0
  9 35  1  0
 10 36  1  0
 11 37  1  0
 14 38  1  0
 16 39  1  0
 18 40  1  0
 18 41  1  0
 19 42  1  1
 21 43  1  0
 26 44  1  0
M  END
$$$$
