
     RDKit          3D

 45 46  0  0  0  0  0  0  0  0999 V2000
   -1.8502   -1.1447   -2.4670 C   0  0  0  0  0  0  0  0  0  0  0  0
   -2.1262   -1.1780   -0.9589 C   0  0  0  0  0  0  0  0  0  0  0  0
   -1.6683    0.0915   -0.1631 C   0  0  0  0  0  0  0  0  0  0  0  0
   -0.2154    0.2732   -0.4443 N   0  0  0  0  0  0  0  0  0  0  0  0
    0.5540    1.0837    0.5146 C   0  0  0  0  0  0  0  0  0  0  0  0
    1.9474    1.3115   -0.0043 C   0  0  0  0  0  0  0  0  0  0  0  0
    2.2264    2.4320   -0.5111 O   0  0  0  0  0  0  0  0  0  0  0  0
    2.9485    0.2706    0.0259 N   0  0  0  0  0  0  0  0  0  0  0  0
    2.6888   -1.1082    0.4245 C   0  0  2  0  0  0  0  0  0  0  0  0
    2.6899   -1.2139    1.8926 C   0  0  0  0  0  0  0  0  0  0  0  0
    2.6899   -1.2960    3.0468 N   0  0  0  0  0  0  0  0  0  0  0  0
    3.8272   -1.9259   -0.1835 C   0  0  0  0  0  0  0  0  0  0  0  0
    4.9542   -0.9317   -0.4432 C   0  0  0  0  0  0  0  0  0  0  0  0
    4.2750    0.4353   -0.5581 C   0  0  2  0  0  0  0  0  0  0  0  0
    5.0368    1.4690    0.1629 C   0  0  0  0  0  0  0  0  0  0  0  0
    5.6348    2.2815    0.7297 N   0  0  0  0  0  0  0  0  0  0  0  0
   -1.9377   -0.1623    1.3588 C   0  0  0  0  0  0  0  0  0  0  0  0
   -3.4340   -0.2391    1.7061 C   0  0  0  0  0  0  0  0  0  0  0  0
   -4.1721    1.0226    1.2454 C   0  0  0  0  0  0  0  0  0  0  0  0
   -3.9604    1.2871   -0.2490 C   0  0  0  0  0  0  0  0  0  0  0  0
   -2.4652    1.3626   -0.5976 C   0  0  0  0  0  0  0  0  0  0  0  0
   -2.2183   -2.0880   -2.9230 H   0  0  0  0  0  0  0  0  0  0  0  0
   -0.7628   -1.0767   -2.6757 H   0  0  0  0  0  0  0  0  0  0  0  0
   -2.3837   -0.3060   -2.9569 H   0  0  0  0  0  0  0  0  0  0  0  0
   -3.2080   -1.3740   -0.8308 H   0  0  0  0  0  0  0  0  0  0  0  0
   -1.5964   -2.0654   -0.5475 H   0  0  0  0  0  0  0  0  0  0  0  0
   -0.1085    0.7138   -1.3892 H   0  0  0  0  0  0  0  0  0  0  0  0
    0.0644    2.0652    0.6887 H   0  0  0  0  0  0  0  0  0  0  0  0
    0.6386    0.5566    1.4857 H   0  0  0  0  0  0  0  0  0  0  0  0
    1.7169   -1.4658    0.0234 H   0  0  0  0  0  0  0  0  0  0  0  0
    4.1630   -2.7639    0.4677 H   0  0  0  0  0  0  0  0  0  0  0  0
    3.4906   -2.3512   -1.1551 H   0  0  0  0  0  0  0  0  0  0  0  0
    5.5061   -1.1867   -1.3741 H   0  0  0  0  0  0  0  0  0  0  0  0
    5.6634   -0.9666    0.4151 H   0  0  0  0  0  0  0  0  0  0  0  0
    4.1773    0.7228   -1.6277 H   0  0  0  0  0  0  0  0  0  0  0  0
   -1.5319    0.6690    1.9726 H   0  0  0  0  0  0  0  0  0  0  0  0
   -1.4334   -1.0971    1.6879 H   0  0  0  0  0  0  0  0  0  0  0  0
   -3.5415   -0.3317    2.8086 H   0  0  0  0  0  0  0  0  0  0  0  0
   -3.9022   -1.1425    1.2643 H   0  0  0  0  0  0  0  0  0  0  0  0
   -5.2586    0.9054    1.4465 H   0  0  0  0  0  0  0  0  0  0  0  0
   -3.8105    1.8972    1.8300 H   0  0  0  0  0  0  0  0  0  0  0  0
   -4.4645    0.5029   -0.8515 H   0  0  0  0  0  0  0  0  0  0  0  0
   -4.4396    2.2549   -0.5120 H   0  0  0  0  0  0  0  0  0  0  0  0
   -2.0483    2.2570   -0.0889 H   0  0  0  0  0  0  0  0  0  0  0  0
   -2.3557    1.5504   -1.6852 H   0  0  0  0  0  0  0  0  0  0  0  0
  1  2  1  0
  2  3  1  0
  3  4  1  0
  4  5  1  0
  5  6  1  0
  6  7  2  0
  6  8  1  0
  8  9  1  0
  9 10  1  0
 10 11  3  0
  9 12  1  0
 12 13  1  0
 13 14  1  0
 14 15  1  0
 15 16  3  0
  3 17  1  0
 17 18  1  0
 18 19  1  0
 19 20  1  0
 20 21  1  0
 21  3  1  0
 14  8  1  0
  1 22  1  0
  1 23  1  0
  1 24  1  0
  2 25  1  0
  2 26  1  0
  4 27  1  0
  5 28  1  0
  5 29  1  0
  9 30  1  6
 12 31  1  0
 12 32  1  0
 13 33  1  0
 13 34  1  0
 14 35  1  6
 17 36  1  0
 17 37  1  0
 18 38  1  0
 18 39  1  0
 19 40  1  0
 19 41  1  0
 20 42  1  0
 20 43  1  0
 21 44  1  0
 21 45  1  0
M  END
$$$$
