
     RDKit          3D

 49 51  0  0  0  0  0  0  0  0999 V2000
    2.0975   -4.9329   -0.0367 C   0  0  0  0  0  0  0  0  0  0  0  0
    1.3777   -3.6476   -0.0761 N   0  0  0  0  0  0  0  0  0  0  0  0
    0.2372   -3.5244   -0.8220 C   0  0  0  0  0  0  0  0  0  0  0  0
   -0.2052   -4.4956   -1.4953 O   0  0  0  0  0  0  0  0  0  0  0  0
   -0.4542   -2.3220   -0.8470 C   0  0  0  0  0  0  0  0  0  0  0  0
    0.0104   -1.2520   -0.0879 C   0  0  0  0  0  0  0  0  0  0  0  0
   -0.7178   -0.0134   -0.1298 N   0  0  0  0  0  0  0  0  0  0  0  0
   -0.6646    0.8011   -1.3508 C   0  0  0  0  0  0  0  0  0  0  0  0
   -1.3567    2.1502   -1.1397 C   0  0  0  0  0  0  0  0  0  0  0  0
   -2.8007    1.9989   -0.6169 C   0  0  0  0  0  0  0  0  0  0  0  0
   -3.0379    0.7332    0.2680 C   0  0  1  0  0  0  0  0  0  0  0  0
   -4.0630    1.0510    1.3772 C   0  0  0  0  0  0  0  0  0  0  0  0
   -3.5498   -0.3586   -0.5754 N   0  0  0  0  0  0  0  0  0  0  0  0
   -1.7085    0.2823    0.9139 C   0  0  0  0  0  0  0  0  0  0  0  0
    1.1367   -1.3939    0.6854 N   0  0  0  0  0  0  0  0  0  0  0  0
    1.6336   -0.2501    1.4837 C   0  0  0  0  0  0  0  0  0  0  0  0
    2.2259    0.8301    0.5978 C   0  0  0  0  0  0  0  0  0  0  0  0
    3.1021    0.4619   -0.4413 C   0  0  0  0  0  0  0  0  0  0  0  0
    3.6615    1.4293   -1.2790 C   0  0  0  0  0  0  0  0  0  0  0  0
    4.4889    1.0564   -2.2862 F   0  0  0  0  0  0  0  0  0  0  0  0
    3.3717    2.7789   -1.0796 C   0  0  0  0  0  0  0  0  0  0  0  0
    2.5339    3.1669   -0.0333 C   0  0  0  0  0  0  0  0  0  0  0  0
    1.9673    2.2064    0.8164 C   0  0  0  0  0  0  0  0  0  0  0  0
    1.1359    2.6639    1.9038 C   0  0  0  0  0  0  0  0  0  0  0  0
    0.4696    3.0327    2.7751 N   0  0  0  0  0  0  0  0  0  0  0  0
    1.8115   -2.5943    0.6918 C   0  0  0  0  0  0  0  0  0  0  0  0
    2.8441   -2.7318    1.4077 O   0  0  0  0  0  0  0  0  0  0  0  0
    3.1915   -4.7756    0.0759 H   0  0  0  0  0  0  0  0  0  0  0  0
    1.9616   -5.5052   -0.9791 H   0  0  0  0  0  0  0  0  0  0  0  0
    1.7262   -5.5413    0.8147 H   0  0  0  0  0  0  0  0  0  0  0  0
   -1.3527   -2.2201   -1.4442 H   0  0  0  0  0  0  0  0  0  0  0  0
   -1.1597    0.2568   -2.1838 H   0  0  0  0  0  0  0  0  0  0  0  0
    0.3935    0.9817   -1.6360 H   0  0  0  0  0  0  0  0  0  0  0  0
   -0.7647    2.7385   -0.4053 H   0  0  0  0  0  0  0  0  0  0  0  0
   -1.3610    2.7198   -2.0940 H   0  0  0  0  0  0  0  0  0  0  0  0
   -3.4962    1.9885   -1.4847 H   0  0  0  0  0  0  0  0  0  0  0  0
   -3.0410    2.9236   -0.0466 H   0  0  0  0  0  0  0  0  0  0  0  0
   -5.0202    1.3983    0.9322 H   0  0  0  0  0  0  0  0  0  0  0  0
   -4.2691    0.1470    1.9896 H   0  0  0  0  0  0  0  0  0  0  0  0
   -3.6789    1.8478    2.0502 H   0  0  0  0  0  0  0  0  0  0  0  0
   -4.4864   -0.0953   -0.9611 H   0  0  0  0  0  0  0  0  0  0  0  0
   -3.6959   -1.2144    0.0091 H   0  0  0  0  0  0  0  0  0  0  0  0
   -1.3181    1.0900    1.5683 H   0  0  0  0  0  0  0  0  0  0  0  0
   -1.8779   -0.6141    1.5522 H   0  0  0  0  0  0  0  0  0  0  0  0
    0.8041    0.1335    2.1094 H   0  0  0  0  0  0  0  0  0  0  0  0
    2.4129   -0.5562    2.2127 H   0  0  0  0  0  0  0  0  0  0  0  0
    3.3476   -0.5783   -0.6116 H   0  0  0  0  0  0  0  0  0  0  0  0
    3.8053    3.5278   -1.7298 H   0  0  0  0  0  0  0  0  0  0  0  0
    2.3317    4.2207    0.1177 H   0  0  0  0  0  0  0  0  0  0  0  0
  1  2  1  0
  2  3  1  0
  3  4  2  0
  3  5  1  0
  5  6  2  0
  6  7  1  0
  7  8  1  0
  8  9  1  0
  9 10  1  0
 10 11  1  0
 11 12  1  0
 11 13  1  6
 11 14  1  0
  6 15  1  0
 15 16  1  0
 16 17  1  0
 17 18  2  0
 18 19  1  0
 19 20  1  0
 19 21  2  0
 21 22  1  0
 22 23  2  0
 23 24  1  0
 24 25  3  0
 15 26  1  0
 26 27  2  0
 26  2  1  0
 14  7  1  0
 23 17  1  0
  1 28  1  0
  1 29  1  0
  1 30  1  0
  5 31  1  0
  8 32  1  0
  8 33  1  0
  9 34  1  0
  9 35  1  0
 10 36  1  0
 10 37  1  0
 12 38  1  0
 12 39  1  0
 12 40  1  0
 13 41  1  0
 13 42  1  0
 14 43  1  0
 14 44  1  0
 16 45  1  0
 16 46  1  0
 18 47  1  0
 21 48  1  0
 22 49  1  0
M  END
$$$$
