
     RDKit          3D

 42 45  0  0  0  0  0  0  0  0999 V2000
   -1.7946   -2.8990   -0.4510 N   0  0  0  0  0  0  0  0  0  0  0  0
   -1.6215   -2.0331    0.7143 C   0  0  0  0  0  0  0  0  0  0  0  0
   -0.7321   -0.8085    0.3927 C   0  0  1  0  0  0  0  0  0  0  0  0
    0.6900   -1.2638    0.0032 C   0  0  0  0  0  0  0  0  0  0  0  0
    1.5523   -0.1206   -0.3212 N   0  0  0  0  0  0  0  0  0  0  0  0
    2.9751   -0.2498   -0.1408 C   0  0  0  0  0  0  0  0  0  0  0  0
    3.5955   -1.4520   -0.3480 N   0  0  0  0  0  0  0  0  0  0  0  0
    4.9430   -1.6148   -0.1680 C   0  0  0  0  0  0  0  0  0  0  0  0
    5.7236   -0.5275    0.2524 C   0  0  0  0  0  0  0  0  0  0  0  0
    5.0846    0.6474    0.4639 N   0  0  0  0  0  0  0  0  0  0  0  0
    5.5214    1.8391    0.8943 C   0  0  0  0  0  0  0  0  0  0  0  0
    4.4883    2.7081    0.9830 N   0  0  0  0  0  0  0  0  0  0  0  0
    3.3850    2.0661    0.6060 N   0  0  0  0  0  0  0  0  0  0  0  0
    3.7717    0.8167    0.2887 C   0  0  0  0  0  0  0  0  0  0  0  0
    1.0042    0.9852   -1.0646 C   0  0  0  0  0  0  0  0  0  0  0  0
    1.7428    1.6817   -1.8128 O   0  0  0  0  0  0  0  0  0  0  0  0
   -0.4404    1.3550   -0.9105 C   0  0  0  0  0  0  0  0  0  0  0  0
   -1.3199    0.1066   -0.7188 C   0  0  2  0  0  0  0  0  0  0  0  0
   -2.7574    0.5282   -0.4422 C   0  0  0  0  0  0  0  0  0  0  0  0
   -3.0958    1.1809    0.7610 C   0  0  0  0  0  0  0  0  0  0  0  0
   -4.4141    1.5716    1.0115 C   0  0  0  0  0  0  0  0  0  0  0  0
   -4.7267    2.1936    2.1750 F   0  0  0  0  0  0  0  0  0  0  0  0
   -5.4092    1.3246    0.0644 C   0  0  0  0  0  0  0  0  0  0  0  0
   -5.0875    0.6908   -1.1370 C   0  0  0  0  0  0  0  0  0  0  0  0
   -3.7708    0.2964   -1.3962 C   0  0  0  0  0  0  0  0  0  0  0  0
   -3.4914   -0.3077   -2.5791 F   0  0  0  0  0  0  0  0  0  0  0  0
   -2.1993   -3.8038   -0.1181 H   0  0  0  0  0  0  0  0  0  0  0  0
   -2.5165   -2.4723   -1.0749 H   0  0  0  0  0  0  0  0  0  0  0  0
   -1.1434   -2.6153    1.5332 H   0  0  0  0  0  0  0  0  0  0  0  0
   -2.6142   -1.7051    1.0942 H   0  0  0  0  0  0  0  0  0  0  0  0
   -0.6394   -0.2173    1.3307 H   0  0  0  0  0  0  0  0  0  0  0  0
    1.1271   -1.8334    0.8536 H   0  0  0  0  0  0  0  0  0  0  0  0
    0.6506   -1.9398   -0.8785 H   0  0  0  0  0  0  0  0  0  0  0  0
    5.3998   -2.5792   -0.3442 H   0  0  0  0  0  0  0  0  0  0  0  0
    6.7899   -0.6254    0.4127 H   0  0  0  0  0  0  0  0  0  0  0  0
    6.5479    2.0725    1.1457 H   0  0  0  0  0  0  0  0  0  0  0  0
   -0.5260    2.0316   -0.0334 H   0  0  0  0  0  0  0  0  0  0  0  0
   -0.7825    1.9114   -1.8110 H   0  0  0  0  0  0  0  0  0  0  0  0
   -1.2783   -0.4626   -1.6740 H   0  0  0  0  0  0  0  0  0  0  0  0
   -2.3404    1.3890    1.5072 H   0  0  0  0  0  0  0  0  0  0  0  0
   -6.4300    1.6278    0.2585 H   0  0  0  0  0  0  0  0  0  0  0  0
   -5.8613    0.5067   -1.8713 H   0  0  0  0  0  0  0  0  0  0  0  0
  1  2  1  0
  2  3  1  0
  3  4  1  0
  4  5  1  0
  5  6  1  0
  6  7  2  0
  7  8  1  0
  8  9  2  0
  9 10  1  0
 10 11  1  0
 11 12  2  0
 12 13  1  0
 13 14  2  0
  5 15  1  0
 15 16  2  0
 15 17  1  0
 17 18  1  0
 18 19  1  0
 19 20  2  0
 20 21  1  0
 21 22  1  0
 21 23  2  0
 23 24  1  0
 24 25  2  0
 25 26  1  0
 18  3  1  0
 25 19  1  0
 14  6  1  0
 14 10  1  0
  1 27  1  0
  1 28  1  0
  2 29  1  0
  2 30  1  0
  3 31  1  1
  4 32  1  0
  4 33  1  0
  8 34  1  0
  9 35  1  0
 11 36  1  0
 17 37  1  0
 17 38  1  0
 18 39  1  6
 20 40  1  0
 23 41  1  0
 24 42  1  0
M  END
$$$$
