
     RDKit          3D

 56 58  0  0  0  0  0  0  0  0999 V2000
   -4.3262    4.2530   -0.8723 C   0  0  0  0  0  0  0  0  0  0  0  0
   -3.4440    3.1309   -1.1896 C   0  0  0  0  0  0  0  0  0  0  0  0
   -2.7223    2.2000   -1.4438 C   0  0  0  0  0  0  0  0  0  0  0  0
   -1.8541    1.0556   -1.7392 C   0  0  0  0  0  0  0  0  0  0  0  0
   -1.0229    0.7323   -0.5629 N   0  0  0  0  0  0  0  0  0  0  0  0
   -1.5378   -0.0427    0.4443 C   0  0  0  0  0  0  0  0  0  0  0  0
   -2.8866   -0.5302    0.3833 N   0  0  0  0  0  0  0  0  0  0  0  0
   -3.1217   -1.9208   -0.0155 C   0  0  0  0  0  0  0  0  0  0  0  0
   -4.4703   -2.0458   -0.7316 C   0  0  0  0  0  0  0  0  0  0  0  0
   -5.5945   -1.4140    0.0982 C   0  0  0  0  0  0  0  0  0  0  0  0
   -5.2770    0.0563    0.4166 C   0  0  1  0  0  0  0  0  0  0  0  0
   -6.3565    0.6416    1.2134 N   0  0  0  0  0  0  0  0  0  0  0  0
   -3.9255    0.1678    1.1458 C   0  0  0  0  0  0  0  0  0  0  0  0
   -0.7586   -0.3547    1.5537 C   0  0  0  0  0  0  0  0  0  0  0  0
    0.5333    0.1464    1.6373 C   0  0  0  0  0  0  0  0  0  0  0  0
    1.2394   -0.1558    2.6384 O   0  0  0  0  0  0  0  0  0  0  0  0
    1.0248    0.9573    0.6484 N   0  0  0  0  0  0  0  0  0  0  0  0
    2.4040    1.4770    0.7357 C   0  0  0  0  0  0  0  0  0  0  0  0
    3.3488    0.5467    0.0429 C   0  0  0  0  0  0  0  0  0  0  0  0
    3.9356   -0.5789    0.5766 C   0  0  0  0  0  0  0  0  0  0  0  0
    4.6381   -1.1370   -0.4234 N   0  0  0  0  0  0  0  0  0  0  0  0
    5.4815   -2.3247   -0.3436 C   0  0  0  0  0  0  0  0  0  0  0  0
    6.9160   -1.9317   -0.1553 C   0  0  0  0  0  0  0  0  0  0  0  0
    7.3395   -1.3753    0.9835 C   0  0  0  0  0  0  0  0  0  0  0  0
    8.7417   -0.9826    1.1866 C   0  0  0  0  0  0  0  0  0  0  0  0
    9.0869   -0.4623    2.2805 O   0  0  0  0  0  0  0  0  0  0  0  0
    9.6902   -1.1782    0.1857 O   0  0  0  0  0  0  0  0  0  0  0  0
    4.4915   -0.3939   -1.5092 N   0  0  0  0  0  0  0  0  0  0  0  0
    3.6979    0.6375   -1.2565 N   0  0  0  0  0  0  0  0  0  0  0  0
    0.2493    1.2420   -0.4507 C   0  0  0  0  0  0  0  0  0  0  0  0
    0.7115    1.9803   -1.3667 O   0  0  0  0  0  0  0  0  0  0  0  0
   -5.1407    3.9035   -0.2046 H   0  0  0  0  0  0  0  0  0  0  0  0
   -3.7447    5.0478   -0.3615 H   0  0  0  0  0  0  0  0  0  0  0  0
   -4.7629    4.6569   -1.8087 H   0  0  0  0  0  0  0  0  0  0  0  0
   -1.2323    1.2916   -2.6285 H   0  0  0  0  0  0  0  0  0  0  0  0
   -2.4821    0.1876   -2.0300 H   0  0  0  0  0  0  0  0  0  0  0  0
   -2.3176   -2.2669   -0.7016 H   0  0  0  0  0  0  0  0  0  0  0  0
   -3.1129   -2.5693    0.8875 H   0  0  0  0  0  0  0  0  0  0  0  0
   -4.6973   -3.1194   -0.9063 H   0  0  0  0  0  0  0  0  0  0  0  0
   -4.4116   -1.5411   -1.7208 H   0  0  0  0  0  0  0  0  0  0  0  0
   -6.5451   -1.4720   -0.4750 H   0  0  0  0  0  0  0  0  0  0  0  0
   -5.7254   -1.9889    1.0418 H   0  0  0  0  0  0  0  0  0  0  0  0
   -5.2082    0.6147   -0.5442 H   0  0  0  0  0  0  0  0  0  0  0  0
   -6.3742    0.1929    2.1586 H   0  0  0  0  0  0  0  0  0  0  0  0
   -6.1528    1.6580    1.3545 H   0  0  0  0  0  0  0  0  0  0  0  0
   -3.9950   -0.2823    2.1603 H   0  0  0  0  0  0  0  0  0  0  0  0
   -3.6615    1.2423    1.2610 H   0  0  0  0  0  0  0  0  0  0  0  0
   -1.1583   -0.9790    2.3443 H   0  0  0  0  0  0  0  0  0  0  0  0
    2.4759    2.4881    0.2790 H   0  0  0  0  0  0  0  0  0  0  0  0
    2.7188    1.6074    1.7940 H   0  0  0  0  0  0  0  0  0  0  0  0
    3.8599   -0.9567    1.5882 H   0  0  0  0  0  0  0  0  0  0  0  0
    5.3824   -2.9056   -1.2855 H   0  0  0  0  0  0  0  0  0  0  0  0
    5.1523   -2.9783    0.4940 H   0  0  0  0  0  0  0  0  0  0  0  0
    7.6092   -2.1166   -0.9672 H   0  0  0  0  0  0  0  0  0  0  0  0
    6.6357   -1.2034    1.7897 H   0  0  0  0  0  0  0  0  0  0  0  0
   10.6564   -0.9075    0.3250 H   0  0  0  0  0  0  0  0  0  0  0  0
  1  2  1  0
  2  3  3  0
  3  4  1  0
  4  5  1  0
  5  6  1  0
  6  7  1  0
  7  8  1  0
  8  9  1  0
  9 10  1  0
 10 11  1  0
 11 12  1  0
 11 13  1  0
  6 14  2  0
 14 15  1  0
 15 16  2  0
 15 17  1  0
 17 18  1  0
 18 19  1  0
 19 20  2  0
 20 21  1  0
 21 22  1  0
 22 23  1  0
 23 24  2  0
 24 25  1  0
 25 26  2  0
 25 27  1  0
 21 28  1  0
 28 29  2  0
 17 30  1  0
 30 31  2  0
 30  5  1  0
 13  7  1  0
 29 19  1  0
  1 32  1  0
  1 33  1  0
  1 34  1  0
  4 35  1  0
  4 36  1  0
  8 37  1  0
  8 38  1  0
  9 39  1  0
  9 40  1  0
 10 41  1  0
 10 42  1  0
 11 43  1  6
 12 44  1  0
 12 45  1  0
 13 46  1  0
 13 47  1  0
 14 48  1  0
 18 49  1  0
 18 50  1  0
 20 51  1  0
 22 52  1  0
 22 53  1  0
 23 54  1  0
 24 55  1  0
 27 56  1  0
M  END
$$$$
