
     RDKit          3D

 42 45  0  0  0  0  0  0  0  0999 V2000
   -1.8215    0.6908   -2.1447 N   0  0  0  0  0  0  0  0  0  0  0  0
   -1.2036   -0.3222   -1.2803 C   0  0  1  0  0  0  0  0  0  0  0  0
    0.3468   -0.1606   -1.3218 C   0  0  0  0  0  0  0  0  0  0  0  0
    1.0753   -0.7081   -0.0687 C   0  0  1  0  0  0  0  0  0  0  0  0
    2.5143   -0.9374   -0.3655 N   0  0  0  0  0  0  0  0  0  0  0  0
    3.3115    0.2930   -0.6345 C   0  0  0  0  0  0  0  0  0  0  0  0
    4.3139    0.3303    0.4464 C   0  0  0  0  0  0  0  0  0  0  0  0
    5.6250    0.7460    0.4724 C   0  0  0  0  0  0  0  0  0  0  0  0
    6.3011   -0.1173    1.2603 N   0  0  0  0  0  0  0  0  0  0  0  0
    5.4933   -1.0961    1.6498 N   0  0  0  0  0  0  0  0  0  0  0  0
    4.2703   -0.7845    1.1841 C   0  0  0  0  0  0  0  0  0  0  0  0
    3.2173   -1.6990    0.7036 C   0  0  0  0  0  0  0  0  0  0  0  0
    0.8324    0.1852    1.1859 C   0  0  0  0  0  0  0  0  0  0  0  0
   -0.8391    0.8147    1.2227 S   0  0  0  0  0  0  0  0  0  0  0  0
   -0.8184    2.3800    0.6116 O   0  0  0  0  0  0  0  0  0  0  0  0
   -1.7887   -0.2752    0.1649 C   0  0  0  0  0  0  0  0  0  0  0  0
   -3.2900   -0.0228    0.2324 C   0  0  0  0  0  0  0  0  0  0  0  0
   -3.8229    1.2787    0.1291 C   0  0  0  0  0  0  0  0  0  0  0  0
   -5.2041    1.4889    0.1676 C   0  0  0  0  0  0  0  0  0  0  0  0
   -5.7004    2.7470    0.0703 F   0  0  0  0  0  0  0  0  0  0  0  0
   -6.0741    0.4057    0.2955 C   0  0  0  0  0  0  0  0  0  0  0  0
   -5.5661   -0.8918    0.3747 C   0  0  0  0  0  0  0  0  0  0  0  0
   -6.4169   -1.9423    0.4825 F   0  0  0  0  0  0  0  0  0  0  0  0
   -4.1844   -1.1108    0.3361 C   0  0  0  0  0  0  0  0  0  0  0  0
   -3.7231   -2.3866    0.3926 F   0  0  0  0  0  0  0  0  0  0  0  0
   -2.8001    0.3909   -2.3602 H   0  0  0  0  0  0  0  0  0  0  0  0
   -1.3315    0.6881   -3.0692 H   0  0  0  0  0  0  0  0  0  0  0  0
   -1.4433   -1.3287   -1.6960 H   0  0  0  0  0  0  0  0  0  0  0  0
    0.5980    0.9152   -1.4456 H   0  0  0  0  0  0  0  0  0  0  0  0
    0.7281   -0.6857   -2.2253 H   0  0  0  0  0  0  0  0  0  0  0  0
    0.6269   -1.7060    0.1382 H   0  0  0  0  0  0  0  0  0  0  0  0
    3.8227    0.1829   -1.6145 H   0  0  0  0  0  0  0  0  0  0  0  0
    2.7178    1.2294   -0.6460 H   0  0  0  0  0  0  0  0  0  0  0  0
    6.0825    1.5071   -0.1458 H   0  0  0  0  0  0  0  0  0  0  0  0
    7.3296   -0.1042    1.4374 H   0  0  0  0  0  0  0  0  0  0  0  0
    3.6830   -2.6027    0.2564 H   0  0  0  0  0  0  0  0  0  0  0  0
    2.5589   -2.0101    1.5424 H   0  0  0  0  0  0  0  0  0  0  0  0
    0.9919   -0.4095    2.1085 H   0  0  0  0  0  0  0  0  0  0  0  0
    1.5197    1.0521    1.2254 H   0  0  0  0  0  0  0  0  0  0  0  0
   -1.6098   -1.2787    0.6067 H   0  0  0  0  0  0  0  0  0  0  0  0
   -3.1787    2.1341   -0.0020 H   0  0  0  0  0  0  0  0  0  0  0  0
   -7.1436    0.5709    0.3230 H   0  0  0  0  0  0  0  0  0  0  0  0
  1  2  1  0
  2  3  1  0
  3  4  1  0
  4  5  1  0
  5  6  1  0
  6  7  1  0
  7  8  2  0
  8  9  1  0
  9 10  1  0
 10 11  2  0
 11 12  1  0
  4 13  1  0
 13 14  1  0
 14 15  1  0
 14 16  1  0
 16 17  1  0
 17 18  2  0
 18 19  1  0
 19 20  1  0
 19 21  2  0
 21 22  1  0
 22 23  1  0
 22 24  2  0
 24 25  1  0
 16  2  1  0
 24 17  1  0
 12  5  1  0
 11  7  1  0
  1 26  1  0
  1 27  1  0
  2 28  1  6
  3 29  1  0
  3 30  1  0
  4 31  1  1
  6 32  1  0
  6 33  1  0
  8 34  1  0
  9 35  1  0
 12 36  1  0
 12 37  1  0
 13 38  1  0
 13 39  1  0
 16 40  1  0
 18 41  1  0
 21 42  1  0
M  CHG  2  14   1  15  -1
M  END
$$$$
