
     RDKit          3D

 69 71  0  0  0  0  0  0  0  0999 V2000
    3.0240    2.1698    3.7296 C   0  0  0  0  0  0  0  0  0  0  0  0
    1.9983    3.1231    3.0945 C   0  0  0  0  0  0  0  0  0  0  0  0
    2.4354    4.5770    3.3413 C   0  0  0  0  0  0  0  0  0  0  0  0
    1.8254    2.8274    1.5790 C   0  0  1  0  0  0  0  0  0  0  0  0
    1.4169    1.4336    1.3626 N   0  0  0  0  0  0  0  0  0  0  0  0
    1.7886    0.6647    0.2049 C   0  0  0  0  0  0  0  0  0  0  0  0
    2.1693    1.2814   -1.0011 C   0  0  0  0  0  0  0  0  0  0  0  0
    2.5138    0.5077   -2.1124 C   0  0  0  0  0  0  0  0  0  0  0  0
    2.4993   -0.8921   -2.0344 C   0  0  0  0  0  0  0  0  0  0  0  0
    2.8127   -1.7160   -3.2527 C   0  0  0  0  0  0  0  0  0  0  0  0
    1.6374   -1.7843   -4.1166 N   0  0  0  0  0  0  0  0  0  0  0  0
    0.5239   -2.6377   -3.8203 C   0  0  0  0  0  0  0  0  0  0  0  0
    0.6466   -3.5700   -2.9794 O   0  0  0  0  0  0  0  0  0  0  0  0
   -0.8013   -2.4130   -4.4903 C   0  0  1  0  0  0  0  0  0  0  0  0
   -1.2472   -3.8603   -5.4931 S   0  0  0  0  0  0  0  0  0  0  0  0
   -2.3113   -4.4874   -4.1650 C   0  0  0  0  0  0  0  0  0  0  0  0
   -2.7939   -3.3081   -3.3338 C   0  0  0  0  0  0  0  0  0  0  0  0
   -1.8420   -2.2136   -3.4864 N   0  0  0  0  0  0  0  0  0  0  0  0
   -1.9425   -0.9728   -2.7523 C   0  0  0  0  0  0  0  0  0  0  0  0
   -1.1917   -0.0064   -3.0588 O   0  0  0  0  0  0  0  0  0  0  0  0
   -2.8849   -0.7995   -1.5875 C   0  0  0  0  0  0  0  0  0  0  0  0
   -2.1294   -0.7831   -0.2386 C   0  0  2  0  0  0  0  0  0  0  0  0
   -1.4050   -2.0388   -0.0152 N   0  0  0  0  0  0  0  0  0  0  0  0
   -3.1123   -0.5375    0.9250 C   0  0  0  0  0  0  0  0  0  0  0  0
   -2.3943   -0.1157    2.1849 C   0  0  0  0  0  0  0  0  0  0  0  0
   -2.2951    1.2488    2.5070 C   0  0  0  0  0  0  0  0  0  0  0  0
   -1.6374    1.6558    3.6713 C   0  0  0  0  0  0  0  0  0  0  0  0
   -1.5772    2.9731    3.9873 F   0  0  0  0  0  0  0  0  0  0  0  0
   -1.0454    0.7064    4.5088 C   0  0  0  0  0  0  0  0  0  0  0  0
   -0.3929    1.1011    5.6300 F   0  0  0  0  0  0  0  0  0  0  0  0
   -1.1299   -0.6522    4.1929 C   0  0  0  0  0  0  0  0  0  0  0  0
   -1.8076   -1.0671    3.0414 C   0  0  0  0  0  0  0  0  0  0  0  0
   -1.9017   -2.3938    2.7732 F   0  0  0  0  0  0  0  0  0  0  0  0
    2.1113   -1.5091   -0.8359 C   0  0  0  0  0  0  0  0  0  0  0  0
    1.7530   -0.7357    0.2719 C   0  0  0  0  0  0  0  0  0  0  0  0
    0.8076    3.7410    0.9528 C   0  0  0  0  0  0  0  0  0  0  0  0
   -0.4191    3.5935    1.2001 O   0  0  0  0  0  0  0  0  0  0  0  0
    1.2259    4.7704    0.1153 O   0  0  0  0  0  0  0  0  0  0  0  0
    2.6849    1.1157    3.6524 H   0  0  0  0  0  0  0  0  0  0  0  0
    4.0110    2.2670    3.2283 H   0  0  0  0  0  0  0  0  0  0  0  0
    3.1470    2.4006    4.8094 H   0  0  0  0  0  0  0  0  0  0  0  0
    1.0261    2.9670    3.6091 H   0  0  0  0  0  0  0  0  0  0  0  0
    3.3864    4.7955    2.8098 H   0  0  0  0  0  0  0  0  0  0  0  0
    1.6557    5.2857    2.9917 H   0  0  0  0  0  0  0  0  0  0  0  0
    2.5835    4.7559    4.4278 H   0  0  0  0  0  0  0  0  0  0  0  0
    2.8107    2.9992    1.0906 H   0  0  0  0  0  0  0  0  0  0  0  0
    0.8342    0.9654    2.0938 H   0  0  0  0  0  0  0  0  0  0  0  0
    2.1817    2.3577   -1.0985 H   0  0  0  0  0  0  0  0  0  0  0  0
    2.7852    1.0005   -3.0380 H   0  0  0  0  0  0  0  0  0  0  0  0
    3.6513   -1.2460   -3.8112 H   0  0  0  0  0  0  0  0  0  0  0  0
    3.1451   -2.7396   -2.9734 H   0  0  0  0  0  0  0  0  0  0  0  0
    1.5617   -1.0997   -4.9024 H   0  0  0  0  0  0  0  0  0  0  0  0
   -0.7578   -1.5337   -5.1683 H   0  0  0  0  0  0  0  0  0  0  0  0
   -1.7122   -5.1764   -3.5318 H   0  0  0  0  0  0  0  0  0  0  0  0
   -3.1697   -5.0460   -4.5941 H   0  0  0  0  0  0  0  0  0  0  0  0
   -2.8614   -3.6214   -2.2709 H   0  0  0  0  0  0  0  0  0  0  0  0
   -3.7937   -2.9770   -3.6889 H   0  0  0  0  0  0  0  0  0  0  0  0
   -3.6731   -1.5788   -1.5735 H   0  0  0  0  0  0  0  0  0  0  0  0
   -3.4086    0.1722   -1.7205 H   0  0  0  0  0  0  0  0  0  0  0  0
   -1.3954    0.0551   -0.2628 H   0  0  0  0  0  0  0  0  0  0  0  0
   -0.6668   -2.1494   -0.7457 H   0  0  0  0  0  0  0  0  0  0  0  0
   -2.0653   -2.8443   -0.1097 H   0  0  0  0  0  0  0  0  0  0  0  0
   -3.7122   -1.4537    1.1191 H   0  0  0  0  0  0  0  0  0  0  0  0
   -3.8402    0.2546    0.6411 H   0  0  0  0  0  0  0  0  0  0  0  0
   -2.7376    1.9973    1.8613 H   0  0  0  0  0  0  0  0  0  0  0  0
   -0.6766   -1.3865    4.8463 H   0  0  0  0  0  0  0  0  0  0  0  0
    2.0736   -2.5886   -0.7613 H   0  0  0  0  0  0  0  0  0  0  0  0
    1.4502   -1.2291    1.1872 H   0  0  0  0  0  0  0  0  0  0  0  0
    0.5552    5.4003   -0.3081 H   0  0  0  0  0  0  0  0  0  0  0  0
  1  2  1  0
  2  3  1  0
  2  4  1  0
  4  5  1  0
  5  6  1  0
  6  7  2  0
  7  8  1  0
  8  9  2  0
  9 10  1  0
 10 11  1  0
 11 12  1  0
 12 13  2  0
 12 14  1  0
 14 15  1  0
 15 16  1  0
 16 17  1  0
 17 18  1  0
 18 19  1  0
 19 20  2  0
 19 21  1  0
 21 22  1  0
 22 23  1  0
 22 24  1  0
 24 25  1  0
 25 26  2  0
 26 27  1  0
 27 28  1  0
 27 29  2  0
 29 30  1  0
 29 31  1  0
 31 32  2  0
 32 33  1  0
  9 34  1  0
 34 35  2  0
  4 36  1  0
 36 37  2  0
 36 38  1  0
 35  6  1  0
 18 14  1  0
 32 25  1  0
  1 39  1  0
  1 40  1  0
  1 41  1  0
  2 42  1  0
  3 43  1  0
  3 44  1  0
  3 45  1  0
  4 46  1  6
  5 47  1  0
  7 48  1  0
  8 49  1  0
 10 50  1  0
 10 51  1  0
 11 52  1  0
 14 53  1  6
 16 54  1  0
 16 55  1  0
 17 56  1  0
 17 57  1  0
 21 58  1  0
 21 59  1  0
 22 60  1  6
 23 61  1  0
 23 62  1  0
 24 63  1  0
 24 64  1  0
 26 65  1  0
 31 66  1  0
 34 67  1  0
 35 68  1  0
 38 69  1  0
M  END
$$$$
