
     RDKit          3D

 40 41  0  0  0  0  0  0  0  0999 V2000
    0.6659   -2.0056    0.6190 N   0  0  0  0  0  0  0  0  0  0  0  0
    0.3483   -1.1204   -0.5079 C   0  0  1  0  0  0  0  0  0  0  0  0
   -0.4326    0.1478   -0.0812 C   0  0  0  0  0  0  0  0  0  0  0  0
   -1.7971   -0.1499    0.5912 C   0  0  0  0  0  0  0  0  0  0  0  0
   -2.4389    1.1588    1.1327 C   0  0  0  0  0  0  0  0  0  0  0  0
   -3.4304    1.7677    0.1351 C   0  0  0  0  0  0  0  0  0  0  0  0
   -4.6011    0.8086   -0.1597 C   0  0  0  0  0  0  0  0  0  0  0  0
   -4.2222   -0.6790   -0.0215 C   0  0  0  0  0  0  0  0  0  0  0  0
   -2.7492   -0.9181   -0.3676 C   0  0  0  0  0  0  0  0  0  0  0  0
    1.5992   -0.7478   -1.2773 C   0  0  0  0  0  0  0  0  0  0  0  0
    1.5546   -0.8263   -2.5359 O   0  0  0  0  0  0  0  0  0  0  0  0
    2.8072   -0.2552   -0.6556 N   0  0  0  0  0  0  0  0  0  0  0  0
    3.9340    0.2180   -1.4448 C   0  0  0  0  0  0  0  0  0  0  0  0
    5.0705    0.4469   -0.4589 C   0  0  0  0  0  0  0  0  0  0  0  0
    4.4193    0.4997    0.9175 C   0  0  0  0  0  0  0  0  0  0  0  0
    3.0847   -0.2183    0.7725 C   0  0  0  0  0  0  0  0  0  0  0  0
   -0.1309   -2.6685    0.7598 H   0  0  0  0  0  0  0  0  0  0  0  0
    0.7497   -1.4572    1.5048 H   0  0  0  0  0  0  0  0  0  0  0  0
   -0.2933   -1.6900   -1.2181 H   0  0  0  0  0  0  0  0  0  0  0  0
   -0.6054    0.7846   -0.9772 H   0  0  0  0  0  0  0  0  0  0  0  0
    0.1924    0.7415    0.6168 H   0  0  0  0  0  0  0  0  0  0  0  0
   -1.6102   -0.7967    1.4765 H   0  0  0  0  0  0  0  0  0  0  0  0
   -1.6645    1.9139    1.3896 H   0  0  0  0  0  0  0  0  0  0  0  0
   -2.9848    0.9354    2.0763 H   0  0  0  0  0  0  0  0  0  0  0  0
   -2.8940    2.0025   -0.8105 H   0  0  0  0  0  0  0  0  0  0  0  0
   -3.8276    2.7233    0.5406 H   0  0  0  0  0  0  0  0  0  0  0  0
   -5.4411    1.0266    0.5354 H   0  0  0  0  0  0  0  0  0  0  0  0
   -4.9674    1.0017   -1.1916 H   0  0  0  0  0  0  0  0  0  0  0  0
   -4.4074   -1.0157    1.0224 H   0  0  0  0  0  0  0  0  0  0  0  0
   -4.8667   -1.2895   -0.6904 H   0  0  0  0  0  0  0  0  0  0  0  0
   -2.5837   -0.6001   -1.4212 H   0  0  0  0  0  0  0  0  0  0  0  0
   -2.5375   -2.0077   -0.3075 H   0  0  0  0  0  0  0  0  0  0  0  0
    4.2273   -0.5419   -2.2018 H   0  0  0  0  0  0  0  0  0  0  0  0
    3.6594    1.1687   -1.9513 H   0  0  0  0  0  0  0  0  0  0  0  0
    5.7794   -0.4094   -0.5003 H   0  0  0  0  0  0  0  0  0  0  0  0
    5.6196    1.3871   -0.6836 H   0  0  0  0  0  0  0  0  0  0  0  0
    4.2440    1.5608    1.2023 H   0  0  0  0  0  0  0  0  0  0  0  0
    5.0594    0.0167    1.6875 H   0  0  0  0  0  0  0  0  0  0  0  0
    2.3005    0.3416    1.3199 H   0  0  0  0  0  0  0  0  0  0  0  0
    3.1709   -1.2546    1.1639 H   0  0  0  0  0  0  0  0  0  0  0  0
  1  2  1  0
  2  3  1  0
  3  4  1  0
  4  5  1  0
  5  6  1  0
  6  7  1  0
  7  8  1  0
  8  9  1  0
  2 10  1  0
 10 11  2  0
 10 12  1  0
 12 13  1  0
 13 14  1  0
 14 15  1  0
 15 16  1  0
  9  4  1  0
 16 12  1  0
  1 17  1  0
  1 18  1  0
  2 19  1  6
  3 20  1  0
  3 21  1  0
  4 22  1  0
  5 23  1  0
  5 24  1  0
  6 25  1  0
  6 26  1  0
  7 27  1  0
  7 28  1  0
  8 29  1  0
  8 30  1  0
  9 31  1  0
  9 32  1  0
 13 33  1  0
 13 34  1  0
 14 35  1  0
 14 36  1  0
 15 37  1  0
 15 38  1  0
 16 39  1  0
 16 40  1  0
M  END
$$$$
