
     RDKit          3D

 58 62  0  0  0  0  0  0  0  0999 V2000
   -4.2432    2.8567    3.2675 C   0  0  0  0  0  0  0  0  0  0  0  0
   -3.3331    1.7980    2.8317 C   0  0  0  0  0  0  0  0  0  0  0  0
   -2.5846    0.9259    2.4690 C   0  0  0  0  0  0  0  0  0  0  0  0
   -1.6764   -0.1347    2.0202 C   0  0  0  0  0  0  0  0  0  0  0  0
   -1.0740    0.2263    0.7233 N   0  0  0  0  0  0  0  0  0  0  0  0
   -1.6282   -0.2287   -0.4643 C   0  0  0  0  0  0  0  0  0  0  0  0
   -2.8214   -1.0260   -0.4672 N   0  0  0  0  0  0  0  0  0  0  0  0
   -4.1291   -0.3973   -0.2663 C   0  0  0  0  0  0  0  0  0  0  0  0
   -4.9560   -0.5039   -1.5508 C   0  0  0  0  0  0  0  0  0  0  0  0
   -5.0049   -1.9555   -2.0529 C   0  0  0  0  0  0  0  0  0  0  0  0
   -3.5910   -2.5424   -2.2489 C   0  0  1  0  0  0  0  0  0  0  0  0
   -2.9028   -1.8621   -3.3486 N   0  0  0  0  0  0  0  0  0  0  0  0
   -2.7811   -2.4097   -0.9466 C   0  0  0  0  0  0  0  0  0  0  0  0
   -1.0453    0.0735   -1.6623 N   0  0  0  0  0  0  0  0  0  0  0  0
    0.0618    0.8443   -1.6751 C   0  0  0  0  0  0  0  0  0  0  0  0
    0.8112    1.2573   -2.7509 C   0  0  0  0  0  0  0  0  0  0  0  0
    1.8373    2.0131   -2.1917 C   0  0  0  0  0  0  0  0  0  0  0  0
    1.7139    2.0675   -0.8411 N   0  0  0  0  0  0  0  0  0  0  0  0
    2.6535    2.7197    0.0728 C   0  0  0  0  0  0  0  0  0  0  0  0
    3.5447    1.6989    0.7208 C   0  0  0  0  0  0  0  0  0  0  0  0
    3.7595    1.7081    2.1072 C   0  0  0  0  0  0  0  0  0  0  0  0
    4.6008    0.7532    2.6817 C   0  0  0  0  0  0  0  0  0  0  0  0
    5.2304   -0.1990    1.8711 C   0  0  0  0  0  0  0  0  0  0  0  0
    6.0807   -1.1729    2.4154 C   0  0  0  0  0  0  0  0  0  0  0  0
    6.6973   -2.1097    1.5776 C   0  0  0  0  0  0  0  0  0  0  0  0
    7.8545   -3.4358    2.3191 Br  0  0  0  0  0  0  0  0  0  0  0  0
    6.4676   -2.0762    0.1971 C   0  0  0  0  0  0  0  0  0  0  0  0
    5.6214   -1.1080   -0.3524 C   0  0  0  0  0  0  0  0  0  0  0  0
    5.0005   -0.1686    0.4779 C   0  0  0  0  0  0  0  0  0  0  0  0
    4.1754    0.7727   -0.0531 N   0  0  0  0  0  0  0  0  0  0  0  0
    0.6182    1.3358   -0.5400 C   0  0  0  0  0  0  0  0  0  0  0  0
    0.0472    1.0302    0.6957 C   0  0  0  0  0  0  0  0  0  0  0  0
    0.5476    1.4813    1.7619 O   0  0  0  0  0  0  0  0  0  0  0  0
   -4.6230    2.6232    4.2833 H   0  0  0  0  0  0  0  0  0  0  0  0
   -5.0955    2.9250    2.5605 H   0  0  0  0  0  0  0  0  0  0  0  0
   -3.7015    3.8246    3.2883 H   0  0  0  0  0  0  0  0  0  0  0  0
   -2.2337   -1.0927    1.9589 H   0  0  0  0  0  0  0  0  0  0  0  0
   -0.8896   -0.2875    2.7898 H   0  0  0  0  0  0  0  0  0  0  0  0
   -4.6596   -0.9116    0.5642 H   0  0  0  0  0  0  0  0  0  0  0  0
   -4.0167    0.6745    0.0066 H   0  0  0  0  0  0  0  0  0  0  0  0
   -5.9893   -0.1450   -1.3552 H   0  0  0  0  0  0  0  0  0  0  0  0
   -4.5084    0.1475   -2.3329 H   0  0  0  0  0  0  0  0  0  0  0  0
   -5.5608   -2.5774   -1.3170 H   0  0  0  0  0  0  0  0  0  0  0  0
   -5.5669   -1.9949   -3.0110 H   0  0  0  0  0  0  0  0  0  0  0  0
   -3.6879   -3.6240   -2.4961 H   0  0  0  0  0  0  0  0  0  0  0  0
   -1.9763   -2.3253   -3.4950 H   0  0  0  0  0  0  0  0  0  0  0  0
   -3.4459   -2.0243   -4.2278 H   0  0  0  0  0  0  0  0  0  0  0  0
   -1.7322   -2.7449   -1.1058 H   0  0  0  0  0  0  0  0  0  0  0  0
   -3.2239   -3.0718   -0.1710 H   0  0  0  0  0  0  0  0  0  0  0  0
    0.6486    1.0341   -3.7969 H   0  0  0  0  0  0  0  0  0  0  0  0
    2.6364    2.4853   -2.7486 H   0  0  0  0  0  0  0  0  0  0  0  0
    2.0894    3.3072    0.8288 H   0  0  0  0  0  0  0  0  0  0  0  0
    3.2889    3.4395   -0.4871 H   0  0  0  0  0  0  0  0  0  0  0  0
    3.2773    2.4442    2.7382 H   0  0  0  0  0  0  0  0  0  0  0  0
    4.7594    0.7597    3.7534 H   0  0  0  0  0  0  0  0  0  0  0  0
    6.2653   -1.2065    3.4826 H   0  0  0  0  0  0  0  0  0  0  0  0
    6.9446   -2.8006   -0.4504 H   0  0  0  0  0  0  0  0  0  0  0  0
    5.4492   -1.0905   -1.4216 H   0  0  0  0  0  0  0  0  0  0  0  0
  1  2  1  0
  2  3  3  0
  3  4  1  0
  4  5  1  0
  5  6  1  0
  6  7  1  0
  7  8  1  0
  8  9  1  0
  9 10  1  0
 10 11  1  0
 11 12  1  0
 11 13  1  0
  6 14  2  0
 14 15  1  0
 15 16  1  0
 16 17  2  0
 17 18  1  0
 18 19  1  0
 19 20  1  0
 20 21  2  0
 21 22  1  0
 22 23  2  0
 23 24  1  0
 24 25  2  0
 25 26  1  0
 25 27  1  0
 27 28  2  0
 28 29  1  0
 29 30  2  0
 18 31  1  0
 31 32  1  0
 32 33  2  0
 32  5  1  0
 13  7  1  0
 31 15  2  0
 30 20  1  0
 29 23  1  0
  1 34  1  0
  1 35  1  0
  1 36  1  0
  4 37  1  0
  4 38  1  0
  8 39  1  0
  8 40  1  0
  9 41  1  0
  9 42  1  0
 10 43  1  0
 10 44  1  0
 11 45  1  6
 12 46  1  0
 12 47  1  0
 13 48  1  0
 13 49  1  0
 16 50  1  0
 17 51  1  0
 19 52  1  0
 19 53  1  0
 21 54  1  0
 22 55  1  0
 24 56  1  0
 27 57  1  0
 28 58  1  0
M  END
$$$$
