
     RDKit          3D

 60 60  0  0  0  0  0  0  0  0999 V2000
   -2.8108    2.5011    0.6700 C   0  0  0  0  0  0  0  0  0  0  0  0
   -3.1737    1.1422    0.5585 O   0  0  0  0  0  0  0  0  0  0  0  0
   -2.6121    0.5823   -0.6156 C   0  0  2  0  0  0  0  0  0  0  0  0
   -3.5517    0.7759   -1.8085 C   0  0  0  0  0  0  0  0  0  0  0  0
   -3.5777   -0.5611   -2.5410 C   0  0  0  0  0  0  0  0  0  0  0  0
   -3.1639   -1.6010   -1.5113 C   0  0  0  0  0  0  0  0  0  0  0  0
   -2.4924   -0.8616   -0.4570 N   0  0  0  0  0  0  0  0  0  0  0  0
   -1.8248   -1.5222    0.6358 C   0  0  0  0  0  0  0  0  0  0  0  0
   -2.1212   -2.7177    0.9025 O   0  0  0  0  0  0  0  0  0  0  0  0
   -0.8044   -0.8062    1.4927 C   0  0  0  0  0  0  0  0  0  0  0  0
    0.6188   -1.4601    1.5335 C   0  0  0  0  0  0  0  0  0  0  0  0
    1.5290   -0.4844    2.3241 C   0  0  0  0  0  0  0  0  0  0  0  0
    0.5599   -2.7836    2.3365 C   0  0  0  0  0  0  0  0  0  0  0  0
    1.1535   -1.7564    0.0736 C   0  0  2  0  0  0  0  0  0  0  0  0
    2.4615   -2.4241    0.0272 N   0  0  0  0  0  0  0  0  0  0  0  0
    1.1334   -0.5604   -0.8600 C   0  0  0  0  0  0  0  0  0  0  0  0
    0.2798   -0.5467   -1.7878 O   0  0  0  0  0  0  0  0  0  0  0  0
    2.0208    0.5654   -0.7176 N   0  0  0  0  0  0  0  0  0  0  0  0
    3.4546    0.4632   -0.4902 C   0  0  0  0  0  0  0  0  0  0  0  0
    3.9986    1.8746   -0.6698 C   0  0  0  0  0  0  0  0  0  0  0  0
    2.7929    2.7966   -0.5172 C   0  0  0  0  0  0  0  0  0  0  0  0
    1.5829    1.9442   -0.8946 C   0  0  1  0  0  0  0  0  0  0  0  0
    1.1885    2.1880   -2.2931 C   0  0  0  0  0  0  0  0  0  0  0  0
    0.8774    2.3791   -3.3912 N   0  0  0  0  0  0  0  0  0  0  0  0
    0.7098   -0.0292   -1.5665 O   0  0  0  0  0  0  0  0  0  0  0  0
    0.4616   -0.0004   -0.3313 C   0  0  0  0  0  0  0  0  0  0  0  0
    1.5051   -0.0656    0.5872 O   0  0  0  0  0  0  0  0  0  0  0  0
   -0.9537    0.0435    0.1463 C   0  0  0  0  0  0  0  0  0  0  0  0
   -1.4763   -1.2359    0.1497 F   0  0  0  0  0  0  0  0  0  0  0  0
   -1.7104    0.8435   -0.6907 F   0  0  0  0  0  0  0  0  0  0  0  0
   -1.0043    0.5591    1.4285 F   0  0  0  0  0  0  0  0  0  0  0  0
   -3.3328    2.9358    1.5467 H   0  0  0  0  0  0  0  0  0  0  0  0
   -1.7171    2.6063    0.8428 H   0  0  0  0  0  0  0  0  0  0  0  0
   -3.1189    3.0810   -0.2283 H   0  0  0  0  0  0  0  0  0  0  0  0
   -1.6053    0.9955   -0.8602 H   0  0  0  0  0  0  0  0  0  0  0  0
   -3.1949    1.5915   -2.4746 H   0  0  0  0  0  0  0  0  0  0  0  0
   -4.5794    1.0185   -1.4574 H   0  0  0  0  0  0  0  0  0  0  0  0
   -4.5860   -0.7784   -2.9556 H   0  0  0  0  0  0  0  0  0  0  0  0
   -2.8361   -0.5426   -3.3700 H   0  0  0  0  0  0  0  0  0  0  0  0
   -2.4729   -2.3452   -1.9640 H   0  0  0  0  0  0  0  0  0  0  0  0
   -4.0573   -2.1157   -1.0957 H   0  0  0  0  0  0  0  0  0  0  0  0
   -1.2183   -0.7349    2.5223 H   0  0  0  0  0  0  0  0  0  0  0  0
   -0.6962    0.2397    1.1436 H   0  0  0  0  0  0  0  0  0  0  0  0
    1.0992   -0.2942    3.3318 H   0  0  0  0  0  0  0  0  0  0  0  0
    1.6074    0.4992    1.8203 H   0  0  0  0  0  0  0  0  0  0  0  0
    2.5462   -0.8897    2.4914 H   0  0  0  0  0  0  0  0  0  0  0  0
    1.5825   -3.1554    2.5611 H   0  0  0  0  0  0  0  0  0  0  0  0
    0.0361   -2.6382    3.3059 H   0  0  0  0  0  0  0  0  0  0  0  0
    0.0377   -3.5817    1.7705 H   0  0  0  0  0  0  0  0  0  0  0  0
    0.4336   -2.4817   -0.3722 H   0  0  0  0  0  0  0  0  0  0  0  0
    3.1087   -2.0592    0.7553 H   0  0  0  0  0  0  0  0  0  0  0  0
    2.3331   -3.4432    0.2254 H   0  0  0  0  0  0  0  0  0  0  0  0
    3.6584    0.1243    0.5442 H   0  0  0  0  0  0  0  0  0  0  0  0
    3.9175   -0.2327   -1.2228 H   0  0  0  0  0  0  0  0  0  0  0  0
    4.7861    2.1085    0.0792 H   0  0  0  0  0  0  0  0  0  0  0  0
    4.4203    1.9846   -1.6932 H   0  0  0  0  0  0  0  0  0  0  0  0
    2.7042    3.1019    0.5490 H   0  0  0  0  0  0  0  0  0  0  0  0
    2.8992    3.7135   -1.1391 H   0  0  0  0  0  0  0  0  0  0  0  0
    0.7262    2.1657   -0.2219 H   0  0  0  0  0  0  0  0  0  0  0  0
    2.4682   -0.1151    0.2768 H   0  0  0  0  0  0  0  0  0  0  0  0
  1  2  1  0
  2  3  1  0
  3  4  1  0
  4  5  1  0
  5  6  1  0
  6  7  1  0
  7  8  1  0
  8  9  2  0
  8 10  1  0
 10 11  1  0
 11 12  1  0
 11 13  1  0
 11 14  1  0
 14 15  1  0
 14 16  1  0
 16 17  2  0
 16 18  1  0
 18 19  1  0
 19 20  1  0
 20 21  1  0
 21 22  1  0
 22 23  1  0
 23 24  3  0
 25 26  2  0
 26 27  1  0
 26 28  1  0
 28 29  1  0
 28 30  1  0
 28 31  1  0
  7  3  1  0
 22 18  1  0
  1 32  1  0
  1 33  1  0
  1 34  1  0
  3 35  1  6
  4 36  1  0
  4 37  1  0
  5 38  1  0
  5 39  1  0
  6 40  1  0
  6 41  1  0
 10 42  1  0
 10 43  1  0
 12 44  1  0
 12 45  1  0
 12 46  1  0
 13 47  1  0
 13 48  1  0
 13 49  1  0
 14 50  1  6
 15 51  1  0
 15 52  1  0
 19 53  1  0
 19 54  1  0
 20 55  1  0
 20 56  1  0
 21 57  1  0
 21 58  1  0
 22 59  1  1
 27 60  1  0
M  END
$$$$
