
     RDKit          3D

 57 60  0  0  0  0  0  0  0  0999 V2000
   -3.7736    1.6691    0.1118 N   0  0  0  0  0  0  0  0  0  0  0  0
   -2.7908    1.2433   -0.8901 C   0  0  1  0  0  0  0  0  0  0  0  0
   -1.7223    2.3338   -1.1501 C   0  0  0  0  0  0  0  0  0  0  0  0
   -0.9595    2.7288    0.0911 C   0  0  0  0  0  0  0  0  0  0  0  0
   -1.4047    3.6775    0.7936 O   0  0  0  0  0  0  0  0  0  0  0  0
    0.2184    2.0155    0.5216 N   0  0  0  0  0  0  0  0  0  0  0  0
    0.5523    2.0066    1.9522 C   0  0  0  0  0  0  0  0  0  0  0  0
    1.2670    0.7124    2.3313 C   0  0  0  0  0  0  0  0  0  0  0  0
    2.4824    0.5185    1.4612 C   0  0  0  0  0  0  0  0  0  0  0  0
    2.4228    0.9233    0.1157 C   0  0  0  0  0  0  0  0  0  0  0  0
    3.4980    0.7392   -0.6929 N   0  0  0  0  0  0  0  0  0  0  0  0
    4.6431    0.1761   -0.2320 C   0  0  0  0  0  0  0  0  0  0  0  0
    5.7952    0.0021   -1.1274 C   0  0  0  0  0  0  0  0  0  0  0  0
    5.8567    0.3747   -2.4657 C   0  0  0  0  0  0  0  0  0  0  0  0
    7.0886    0.0827   -3.0639 C   0  0  0  0  0  0  0  0  0  0  0  0
    7.9987   -0.5183   -2.2038 C   0  0  0  0  0  0  0  0  0  0  0  0
    7.2696   -0.6862   -0.6979 S   0  0  0  0  0  0  0  0  0  0  0  0
    4.7149   -0.2414    1.0573 N   0  0  0  0  0  0  0  0  0  0  0  0
    3.6691   -0.1044    1.9166 C   0  0  0  0  0  0  0  0  0  0  0  0
    3.8330   -0.6088    3.3276 C   0  0  0  0  0  0  0  0  0  0  0  0
    2.7882   -1.4532    3.6579 F   0  0  0  0  0  0  0  0  0  0  0  0
    3.8636    0.4589    4.2059 F   0  0  0  0  0  0  0  0  0  0  0  0
    5.0178   -1.3139    3.4529 F   0  0  0  0  0  0  0  0  0  0  0  0
    1.1579    1.4834   -0.4824 C   0  0  0  0  0  0  0  0  0  0  0  0
   -2.1608   -0.1087   -0.4913 C   0  0  0  0  0  0  0  0  0  0  0  0
   -3.1888   -1.1471   -0.3005 N   0  0  0  0  0  0  0  0  0  0  0  0
   -3.9133   -1.6431   -1.4513 C   0  0  0  0  0  0  0  0  0  0  0  0
   -3.5084   -1.3771   -2.6156 O   0  0  0  0  0  0  0  0  0  0  0  0
   -5.1222   -2.5202   -1.3044 C   0  0  0  0  0  0  0  0  0  0  0  0
   -5.6582   -2.5141    0.1246 C   0  0  0  0  0  0  0  0  0  0  0  0
   -4.5229   -2.7357    1.1220 C   0  0  0  0  0  0  0  0  0  0  0  0
   -3.8669   -3.9220    0.8291 F   0  0  0  0  0  0  0  0  0  0  0  0
   -5.0565   -2.8347    2.3960 F   0  0  0  0  0  0  0  0  0  0  0  0
   -3.5301   -1.5576    1.0782 C   0  0  1  0  0  0  0  0  0  0  0  0
   -2.3576   -1.9168    1.7653 O   0  0  0  0  0  0  0  0  0  0  0  0
   -3.3060    1.7926    1.0388 H   0  0  0  0  0  0  0  0  0  0  0  0
   -4.1724    2.5936   -0.1716 H   0  0  0  0  0  0  0  0  0  0  0  0
   -3.3313    1.0972   -1.8502 H   0  0  0  0  0  0  0  0  0  0  0  0
   -2.2283    3.2367   -1.5568 H   0  0  0  0  0  0  0  0  0  0  0  0
   -1.0297    1.9946   -1.9474 H   0  0  0  0  0  0  0  0  0  0  0  0
   -0.3720    2.0835    2.5665 H   0  0  0  0  0  0  0  0  0  0  0  0
    1.2003    2.8800    2.1839 H   0  0  0  0  0  0  0  0  0  0  0  0
    1.5340    0.7767    3.4052 H   0  0  0  0  0  0  0  0  0  0  0  0
    0.5790   -0.1493    2.1907 H   0  0  0  0  0  0  0  0  0  0  0  0
    5.0393    0.8436   -2.9980 H   0  0  0  0  0  0  0  0  0  0  0  0
    7.3111    0.3043   -4.0991 H   0  0  0  0  0  0  0  0  0  0  0  0
    9.0035   -0.8246   -2.4612 H   0  0  0  0  0  0  0  0  0  0  0  0
    1.4278    2.2941   -1.1936 H   0  0  0  0  0  0  0  0  0  0  0  0
    0.6700    0.6657   -1.0500 H   0  0  0  0  0  0  0  0  0  0  0  0
   -1.5730    0.0264    0.4409 H   0  0  0  0  0  0  0  0  0  0  0  0
   -1.4482   -0.4417   -1.2761 H   0  0  0  0  0  0  0  0  0  0  0  0
   -5.9207   -2.1694   -1.9932 H   0  0  0  0  0  0  0  0  0  0  0  0
   -4.8483   -3.5571   -1.5960 H   0  0  0  0  0  0  0  0  0  0  0  0
   -6.4144   -3.3215    0.2337 H   0  0  0  0  0  0  0  0  0  0  0  0
   -6.1603   -1.5432    0.3337 H   0  0  0  0  0  0  0  0  0  0  0  0
   -4.0054   -0.6839    1.5826 H   0  0  0  0  0  0  0  0  0  0  0  0
   -2.5557   -1.8413    2.7353 H   0  0  0  0  0  0  0  0  0  0  0  0
  1  2  1  0
  2  3  1  0
  3  4  1  0
  4  5  2  0
  4  6  1  0
  6  7  1  0
  7  8  1  0
  8  9  1  0
  9 10  2  0
 10 11  1  0
 11 12  2  0
 12 13  1  0
 13 14  2  0
 14 15  1  0
 15 16  2  0
 16 17  1  0
 12 18  1  0
 18 19  2  0
 19 20  1  0
 20 21  1  0
 20 22  1  0
 20 23  1  0
 10 24  1  0
  2 25  1  0
 25 26  1  0
 26 27  1  0
 27 28  2  0
 27 29  1  0
 29 30  1  0
 30 31  1  0
 31 32  1  0
 31 33  1  0
 31 34  1  0
 34 35  1  0
 24  6  1  0
 34 26  1  0
 19  9  1  0
 17 13  1  0
  1 36  1  0
  1 37  1  0
  2 38  1  6
  3 39  1  0
  3 40  1  0
  7 41  1  0
  7 42  1  0
  8 43  1  0
  8 44  1  0
 14 45  1  0
 15 46  1  0
 16 47  1  0
 24 48  1  0
 24 49  1  0
 25 50  1  0
 25 51  1  0
 29 52  1  0
 29 53  1  0
 30 54  1  0
 30 55  1  0
 34 56  1  1
 35 57  1  0
M  END
$$$$
