
     RDKit          3D

 47 48  0  0  0  0  0  0  0  0999 V2000
    0.1583   -1.1096   -2.1553 N   0  0  0  0  0  0  0  0  0  0  0  0
   -0.7818   -0.6770   -1.1153 C   0  0  1  0  0  0  0  0  0  0  0  0
   -0.4246    0.7403   -0.6171 C   0  0  0  0  0  0  0  0  0  0  0  0
    0.7946    0.7711    0.3162 C   0  0  0  0  0  0  0  0  0  0  0  0
    2.0288    0.4542   -0.4183 N   0  0  0  0  0  0  0  0  0  0  0  0
    3.2322    0.9405    0.2813 C   0  0  0  0  0  0  0  0  0  0  0  0
    4.4548    0.7872   -0.6358 C   0  0  0  0  0  0  0  0  0  0  0  0
    5.7413    1.3140    0.0397 C   0  0  0  0  0  0  0  0  0  0  0  0
    5.6195    1.4113    1.5055 N   0  0  0  0  0  0  0  0  0  0  0  0
    4.9455    0.2322    2.0594 C   0  0  0  0  0  0  0  0  0  0  0  0
    3.4691    0.1979    1.6231 C   0  0  0  0  0  0  0  0  0  0  0  0
   -2.2134   -0.6965   -1.6257 C   0  0  0  0  0  0  0  0  0  0  0  0
   -2.4241   -0.5419   -2.8606 O   0  0  0  0  0  0  0  0  0  0  0  0
   -3.3364   -0.8026   -0.7200 N   0  0  0  0  0  0  0  0  0  0  0  0
   -4.6872   -0.4392   -1.1771 C   0  0  0  0  0  0  0  0  0  0  0  0
   -5.4163    0.3693   -0.0960 C   0  0  0  0  0  0  0  0  0  0  0  0
   -5.3229   -0.2579    1.3129 C   0  0  0  0  0  0  0  0  0  0  0  0
   -4.4970   -1.5492    1.3533 C   0  0  0  0  0  0  0  0  0  0  0  0
   -3.1582   -1.3677    0.6290 C   0  0  0  0  0  0  0  0  0  0  0  0
    0.1019   -0.4678   -2.9798 H   0  0  0  0  0  0  0  0  0  0  0  0
   -0.1104   -2.0684   -2.4768 H   0  0  0  0  0  0  0  0  0  0  0  0
   -0.6880   -1.3883   -0.2687 H   0  0  0  0  0  0  0  0  0  0  0  0
   -1.2850    1.1524   -0.0442 H   0  0  0  0  0  0  0  0  0  0  0  0
   -0.2539    1.4215   -1.4796 H   0  0  0  0  0  0  0  0  0  0  0  0
    0.8515    1.7955    0.7479 H   0  0  0  0  0  0  0  0  0  0  0  0
    0.6466    0.0570    1.1571 H   0  0  0  0  0  0  0  0  0  0  0  0
    2.0984   -0.5853   -0.5234 H   0  0  0  0  0  0  0  0  0  0  0  0
    3.1217    2.0300    0.4889 H   0  0  0  0  0  0  0  0  0  0  0  0
    4.5890   -0.2887   -0.8865 H   0  0  0  0  0  0  0  0  0  0  0  0
    4.2828    1.3349   -1.5882 H   0  0  0  0  0  0  0  0  0  0  0  0
    5.9665    2.3275   -0.3564 H   0  0  0  0  0  0  0  0  0  0  0  0
    6.5961    0.6539   -0.2314 H   0  0  0  0  0  0  0  0  0  0  0  0
    6.5848    1.4543    1.9084 H   0  0  0  0  0  0  0  0  0  0  0  0
    5.4631   -0.6961    1.7251 H   0  0  0  0  0  0  0  0  0  0  0  0
    4.9981    0.2618    3.1696 H   0  0  0  0  0  0  0  0  0  0  0  0
    3.1518   -0.8649    1.5451 H   0  0  0  0  0  0  0  0  0  0  0  0
    2.8448    0.6759    2.4093 H   0  0  0  0  0  0  0  0  0  0  0  0
   -4.6504    0.1755   -2.1024 H   0  0  0  0  0  0  0  0  0  0  0  0
   -5.2586   -1.3646   -1.4066 H   0  0  0  0  0  0  0  0  0  0  0  0
   -4.9772    1.3909   -0.0657 H   0  0  0  0  0  0  0  0  0  0  0  0
   -6.4836    0.4788   -0.3871 H   0  0  0  0  0  0  0  0  0  0  0  0
   -6.3449   -0.4764    1.6919 H   0  0  0  0  0  0  0  0  0  0  0  0
   -4.8662    0.4789    2.0100 H   0  0  0  0  0  0  0  0  0  0  0  0
   -4.3123   -1.8404    2.4099 H   0  0  0  0  0  0  0  0  0  0  0  0
   -5.0704   -2.3712    0.8711 H   0  0  0  0  0  0  0  0  0  0  0  0
   -2.5128   -0.6917    1.2306 H   0  0  0  0  0  0  0  0  0  0  0  0
   -2.6659   -2.3614    0.5555 H   0  0  0  0  0  0  0  0  0  0  0  0
  1  2  1  0
  2  3  1  0
  3  4  1  0
  4  5  1  0
  5  6  1  0
  6  7  1  0
  7  8  1  0
  8  9  1  0
  9 10  1  0
 10 11  1  0
  2 12  1  0
 12 13  2  0
 12 14  1  0
 14 15  1  0
 15 16  1  0
 16 17  1  0
 17 18  1  0
 18 19  1  0
 11  6  1  0
 19 14  1  0
  1 20  1  0
  1 21  1  0
  2 22  1  1
  3 23  1  0
  3 24  1  0
  4 25  1  0
  4 26  1  0
  5 27  1  0
  6 28  1  0
  7 29  1  0
  7 30  1  0
  8 31  1  0
  8 32  1  0
  9 33  1  0
 10 34  1  0
 10 35  1  0
 11 36  1  0
 11 37  1  0
 15 38  1  0
 15 39  1  0
 16 40  1  0
 16 41  1  0
 17 42  1  0
 17 43  1  0
 18 44  1  0
 18 45  1  0
 19 46  1  0
 19 47  1  0
M  END
$$$$
