
     RDKit          3D

 45 47  0  0  0  0  0  0  0  0999 V2000
   -3.8375   -2.0714   -0.9724 C   0  0  0  0  0  0  0  0  0  0  0  0
   -3.8452   -0.7890   -0.1743 C   0  0  0  0  0  0  0  0  0  0  0  0
   -5.0620   -0.0944   -0.0871 C   0  0  0  0  0  0  0  0  0  0  0  0
   -5.1582    1.0877    0.6306 C   0  0  0  0  0  0  0  0  0  0  0  0
   -4.0461    1.5977    1.2833 C   0  0  0  0  0  0  0  0  0  0  0  0
   -2.8089    0.9353    1.2384 C   0  0  0  0  0  0  0  0  0  0  0  0
   -1.6816    1.6216    1.9736 C   0  0  0  0  0  0  0  0  0  0  0  0
   -2.6767   -0.2751    0.4753 C   0  0  0  0  0  0  0  0  0  0  0  0
   -1.3463   -1.0446    0.3588 C   0  0  2  0  0  0  0  0  0  0  0  0
   -0.8311   -1.6232    1.6799 C   0  0  0  0  0  0  0  0  0  0  0  0
    0.6107   -1.3651    1.7647 N   0  0  0  0  0  0  0  0  0  0  0  0
    1.0334   -0.8389    0.4568 C   0  0  2  0  0  0  0  0  0  0  0  0
    2.1509    0.1824    0.5599 C   0  0  0  0  0  0  0  0  0  0  0  0
    2.1195    1.0409    1.4842 O   0  0  0  0  0  0  0  0  0  0  0  0
    3.1991    0.2522   -0.4283 N   0  0  0  0  0  0  0  0  0  0  0  0
    3.3380   -0.6689   -1.5463 C   0  0  0  0  0  0  0  0  0  0  0  0
    4.5189   -0.1565   -2.3604 C   0  0  0  0  0  0  0  0  0  0  0  0
    5.2860    0.7780   -1.4298 C   0  0  0  0  0  0  0  0  0  0  0  0
    4.2737    1.2339   -0.3793 C   0  0  1  0  0  0  0  0  0  0  0  0
    3.7468    2.5717   -0.6970 C   0  0  0  0  0  0  0  0  0  0  0  0
    3.3315    3.6227   -0.9464 N   0  0  0  0  0  0  0  0  0  0  0  0
   -0.1921   -0.2547   -0.2350 C   0  0  0  0  0  0  0  0  0  0  0  0
   -3.1598   -1.9694   -1.8460 H   0  0  0  0  0  0  0  0  0  0  0  0
   -3.5122   -2.9166   -0.3298 H   0  0  0  0  0  0  0  0  0  0  0  0
   -4.8458   -2.3264   -1.3631 H   0  0  0  0  0  0  0  0  0  0  0  0
   -5.9503   -0.4693   -0.5809 H   0  0  0  0  0  0  0  0  0  0  0  0
   -6.1034    1.6130    0.6828 H   0  0  0  0  0  0  0  0  0  0  0  0
   -4.1520    2.5254    1.8336 H   0  0  0  0  0  0  0  0  0  0  0  0
   -1.3211    2.4826    1.3726 H   0  0  0  0  0  0  0  0  0  0  0  0
   -0.8275    0.9674    2.1964 H   0  0  0  0  0  0  0  0  0  0  0  0
   -2.0423    2.0067    2.9515 H   0  0  0  0  0  0  0  0  0  0  0  0
   -1.4495   -1.9168   -0.3159 H   0  0  0  0  0  0  0  0  0  0  0  0
   -0.9991   -2.7221    1.7039 H   0  0  0  0  0  0  0  0  0  0  0  0
   -1.3642   -1.2043    2.5623 H   0  0  0  0  0  0  0  0  0  0  0  0
    0.7711   -0.6669    2.5269 H   0  0  0  0  0  0  0  0  0  0  0  0
    1.3816   -1.7107   -0.1365 H   0  0  0  0  0  0  0  0  0  0  0  0
    2.4141   -0.6745   -2.1643 H   0  0  0  0  0  0  0  0  0  0  0  0
    3.5517   -1.6908   -1.1647 H   0  0  0  0  0  0  0  0  0  0  0  0
    4.1464    0.4193   -3.2362 H   0  0  0  0  0  0  0  0  0  0  0  0
    5.1608   -0.9911   -2.7169 H   0  0  0  0  0  0  0  0  0  0  0  0
    5.7483    1.6207   -1.9912 H   0  0  0  0  0  0  0  0  0  0  0  0
    6.0966    0.2036   -0.9293 H   0  0  0  0  0  0  0  0  0  0  0  0
    4.7435    1.2468    0.6283 H   0  0  0  0  0  0  0  0  0  0  0  0
   -0.2794    0.8341   -0.0556 H   0  0  0  0  0  0  0  0  0  0  0  0
   -0.1303   -0.4031   -1.3362 H   0  0  0  0  0  0  0  0  0  0  0  0
  1  2  1  0
  2  3  2  0
  3  4  1  0
  4  5  2  0
  5  6  1  0
  6  7  1  0
  6  8  2  0
  8  9  1  0
  9 10  1  0
 10 11  1  0
 11 12  1  0
 12 13  1  0
 13 14  2  0
 13 15  1  0
 15 16  1  0
 16 17  1  0
 17 18  1  0
 18 19  1  0
 19 20  1  0
 20 21  3  0
 12 22  1  0
  8  2  1  0
 22  9  1  0
 19 15  1  0
  1 23  1  0
  1 24  1  0
  1 25  1  0
  3 26  1  0
  4 27  1  0
  5 28  1  0
  7 29  1  0
  7 30  1  0
  7 31  1  0
  9 32  1  6
 10 33  1  0
 10 34  1  0
 11 35  1  0
 12 36  1  6
 16 37  1  0
 16 38  1  0
 17 39  1  0
 17 40  1  0
 18 41  1  0
 18 42  1  0
 19 43  1  1
 22 44  1  0
 22 45  1  0
M  END
$$$$
