
     RDKit          3D

 46 49  0  0  0  0  0  0  0  0999 V2000
   -1.0107    2.4386    2.7760 N   0  0  0  0  0  0  0  0  0  0  0  0
   -1.4936    2.0285    1.8075 C   0  0  0  0  0  0  0  0  0  0  0  0
   -2.1139    1.5105    0.5744 C   0  0  2  0  0  0  0  0  0  0  0  0
   -3.6070    1.2399    0.7907 C   0  0  0  0  0  0  0  0  0  0  0  0
   -4.2193    0.5318   -0.3962 C   0  0  0  0  0  0  0  0  0  0  0  0
   -5.6161    0.5260   -0.5391 C   0  0  0  0  0  0  0  0  0  0  0  0
   -6.2168   -0.1610   -1.5966 C   0  0  0  0  0  0  0  0  0  0  0  0
   -5.4306   -0.8563   -2.5165 C   0  0  0  0  0  0  0  0  0  0  0  0
   -4.0408   -0.8721   -2.3799 C   0  0  0  0  0  0  0  0  0  0  0  0
   -3.4232   -0.1970   -1.3152 C   0  0  0  0  0  0  0  0  0  0  0  0
   -1.9146   -0.1939   -1.2242 C   0  0  0  0  0  0  0  0  0  0  0  0
   -1.4678    0.2808    0.0899 N   0  0  0  0  0  0  0  0  0  0  0  0
   -0.8818   -0.6672    1.0024 C   0  0  0  0  0  0  0  0  0  0  0  0
   -1.6053   -1.2116    1.8792 O   0  0  0  0  0  0  0  0  0  0  0  0
    0.5986   -0.9787    0.9639 C   0  0  1  0  0  0  0  0  0  0  0  0
    1.0076   -1.4885   -0.3473 N   0  0  0  0  0  0  0  0  0  0  0  0
    1.4211    0.2637    1.3433 C   0  0  0  0  0  0  0  0  0  0  0  0
    2.8897   -0.0451    1.3935 C   0  0  0  0  0  0  0  0  0  0  0  0
    3.5723   -0.6401    2.4503 C   0  0  0  0  0  0  0  0  0  0  0  0
    4.8711   -0.8319    2.1252 N   0  0  0  0  0  0  0  0  0  0  0  0
    5.0115   -0.3735    0.8692 C   0  0  0  0  0  0  0  0  0  0  0  0
    6.1712   -0.3735    0.0951 C   0  0  0  0  0  0  0  0  0  0  0  0
    6.0899    0.1427   -1.2111 C   0  0  0  0  0  0  0  0  0  0  0  0
    4.8650    0.6391   -1.7096 C   0  0  0  0  0  0  0  0  0  0  0  0
    3.7102    0.6253   -0.9064 C   0  0  0  0  0  0  0  0  0  0  0  0
    3.8224    0.1106    0.3860 C   0  0  0  0  0  0  0  0  0  0  0  0
   -2.0062    2.3003   -0.2017 H   0  0  0  0  0  0  0  0  0  0  0  0
   -3.7507    0.5999    1.6889 H   0  0  0  0  0  0  0  0  0  0  0  0
   -4.1312    2.2058    0.9644 H   0  0  0  0  0  0  0  0  0  0  0  0
   -6.2407    1.0541    0.1710 H   0  0  0  0  0  0  0  0  0  0  0  0
   -7.2940   -0.1554   -1.7021 H   0  0  0  0  0  0  0  0  0  0  0  0
   -5.8990   -1.3838   -3.3374 H   0  0  0  0  0  0  0  0  0  0  0  0
   -3.4437   -1.4110   -3.1054 H   0  0  0  0  0  0  0  0  0  0  0  0
   -1.5349   -1.2184   -1.4262 H   0  0  0  0  0  0  0  0  0  0  0  0
   -1.5108    0.4814   -2.0085 H   0  0  0  0  0  0  0  0  0  0  0  0
    0.8081   -1.7697    1.7195 H   0  0  0  0  0  0  0  0  0  0  0  0
    0.4378   -2.3354   -0.5759 H   0  0  0  0  0  0  0  0  0  0  0  0
    0.8297   -0.7650   -1.0810 H   0  0  0  0  0  0  0  0  0  0  0  0
    1.2339    1.0867    0.6201 H   0  0  0  0  0  0  0  0  0  0  0  0
    1.1061    0.6204    2.3475 H   0  0  0  0  0  0  0  0  0  0  0  0
    3.1385   -0.9268    3.3995 H   0  0  0  0  0  0  0  0  0  0  0  0
    5.6088   -1.2620    2.7263 H   0  0  0  0  0  0  0  0  0  0  0  0
    7.1041   -0.7604    0.4842 H   0  0  0  0  0  0  0  0  0  0  0  0
    6.9714    0.1573   -1.8387 H   0  0  0  0  0  0  0  0  0  0  0  0
    4.8141    1.0320   -2.7167 H   0  0  0  0  0  0  0  0  0  0  0  0
    2.7695    1.0027   -1.2849 H   0  0  0  0  0  0  0  0  0  0  0  0
  1  2  3  0
  2  3  1  0
  3  4  1  0
  4  5  1  0
  5  6  2  0
  6  7  1  0
  7  8  2  0
  8  9  1  0
  9 10  2  0
 10 11  1  0
 11 12  1  0
 12 13  1  0
 13 14  2  0
 13 15  1  0
 15 16  1  0
 15 17  1  0
 17 18  1  0
 18 19  2  0
 19 20  1  0
 20 21  1  0
 21 22  2  0
 22 23  1  0
 23 24  2  0
 24 25  1  0
 25 26  2  0
 12  3  1  0
 26 18  1  0
 10  5  1  0
 26 21  1  0
  3 27  1  6
  4 28  1  0
  4 29  1  0
  6 30  1  0
  7 31  1  0
  8 32  1  0
  9 33  1  0
 11 34  1  0
 11 35  1  0
 15 36  1  1
 16 37  1  0
 16 38  1  0
 17 39  1  0
 17 40  1  0
 19 41  1  0
 20 42  1  0
 22 43  1  0
 23 44  1  0
 24 45  1  0
 25 46  1  0
M  END
$$$$
