
     RDKit          3D

 36 37  0  0  0  0  0  0  0  0999 V2000
   -2.7062   -3.2606    0.8123 N   0  0  0  0  0  0  0  0  0  0  0  0
   -2.8741   -2.1157    0.7929 C   0  0  0  0  0  0  0  0  0  0  0  0
   -3.0876   -0.6585    0.7682 C   0  0  2  0  0  0  0  0  0  0  0  0
   -4.5322   -0.3249    0.3835 C   0  0  0  0  0  0  0  0  0  0  0  0
   -4.4324    0.8540   -0.5844 C   0  0  2  0  0  0  0  0  0  0  0  0
   -5.4517    0.7664   -1.6258 N   0  0  0  0  0  0  0  0  0  0  0  0
   -6.2759    1.6673   -1.7847 N   0  0  0  0  0  0  0  0  0  0  0  0
   -7.0992    2.5670   -1.9437 N   0  0  0  0  0  0  0  0  0  0  0  0
   -3.0322    0.7739   -1.1831 C   0  0  0  0  0  0  0  0  0  0  0  0
   -2.2554   -0.0259   -0.2499 N   0  0  0  0  0  0  0  0  0  0  0  0
   -0.8144   -0.0599   -0.2877 C   0  0  0  0  0  0  0  0  0  0  0  0
   -0.2124    0.4080   -1.2930 O   0  0  0  0  0  0  0  0  0  0  0  0
   -0.0154   -0.6825    0.8278 C   0  0  0  0  0  0  0  0  0  0  0  0
    1.3592   -0.1830    0.8333 N   0  0  0  0  0  0  0  0  0  0  0  0
    2.3996   -0.7881    0.0470 C   0  0  0  0  0  0  0  0  0  0  0  0
    2.1123   -1.7193   -0.7546 O   0  0  0  0  0  0  0  0  0  0  0  0
    3.8043   -0.3231    0.1462 C   0  0  0  0  0  0  0  0  0  0  0  0
    4.6963   -0.5456   -0.9200 C   0  0  0  0  0  0  0  0  0  0  0  0
    6.0240   -0.1154   -0.8356 C   0  0  0  0  0  0  0  0  0  0  0  0
    6.4785    0.5334    0.3142 C   0  0  0  0  0  0  0  0  0  0  0  0
    5.6072    0.7493    1.3839 C   0  0  0  0  0  0  0  0  0  0  0  0
    4.2778    0.3223    1.3048 C   0  0  0  0  0  0  0  0  0  0  0  0
   -2.8537   -0.2271    1.7652 H   0  0  0  0  0  0  0  0  0  0  0  0
   -5.0246   -1.1867   -0.1242 H   0  0  0  0  0  0  0  0  0  0  0  0
   -5.1320   -0.0533    1.2795 H   0  0  0  0  0  0  0  0  0  0  0  0
   -4.5318    1.8050   -0.0103 H   0  0  0  0  0  0  0  0  0  0  0  0
   -2.5989    1.7936   -1.2793 H   0  0  0  0  0  0  0  0  0  0  0  0
   -3.0379    0.2738   -2.1766 H   0  0  0  0  0  0  0  0  0  0  0  0
   -0.4816   -0.4333    1.8037 H   0  0  0  0  0  0  0  0  0  0  0  0
   -0.0214   -1.7880    0.7208 H   0  0  0  0  0  0  0  0  0  0  0  0
    1.5410    0.7200    1.3251 H   0  0  0  0  0  0  0  0  0  0  0  0
    4.3643   -1.0425   -1.8232 H   0  0  0  0  0  0  0  0  0  0  0  0
    6.7009   -0.2855   -1.6629 H   0  0  0  0  0  0  0  0  0  0  0  0
    7.5071    0.8644    0.3784 H   0  0  0  0  0  0  0  0  0  0  0  0
    5.9638    1.2428    2.2789 H   0  0  0  0  0  0  0  0  0  0  0  0
    3.6347    0.4779    2.1605 H   0  0  0  0  0  0  0  0  0  0  0  0
  1  2  3  0
  2  3  1  0
  3  4  1  0
  4  5  1  0
  5  6  1  0
  6  7  2  0
  7  8  2  0
  5  9  1  0
  9 10  1  0
 10 11  1  0
 11 12  2  0
 11 13  1  0
 13 14  1  0
 14 15  1  0
 15 16  2  0
 15 17  1  0
 17 18  2  0
 18 19  1  0
 19 20  2  0
 20 21  1  0
 21 22  2  0
 10  3  1  0
 22 17  1  0
  3 23  1  1
  4 24  1  0
  4 25  1  0
  5 26  1  1
  9 27  1  0
  9 28  1  0
 13 29  1  0
 13 30  1  0
 14 31  1  0
 18 32  1  0
 19 33  1  0
 20 34  1  0
 21 35  1  0
 22 36  1  0
M  CHG  2   7   1   8  -1
M  END
$$$$
