
     RDKit          3D

 37 39  0  0  0  0  0  0  0  0999 V2000
   -2.9858   -2.1230   -1.3152 N   0  0  0  0  0  0  0  0  0  0  0  0
   -2.6109   -1.8213    0.0645 C   0  0  0  0  0  0  0  0  0  0  0  0
   -1.1639   -1.3636    0.1537 C   0  0  0  0  0  0  0  0  0  0  0  0
   -0.0962   -2.2917    0.2224 C   0  0  0  0  0  0  0  0  0  0  0  0
   -0.3119   -3.7081    0.2260 N   0  0  0  0  0  0  0  0  0  0  0  0
    1.1836   -1.8387    0.2715 N   0  0  0  0  0  0  0  0  0  0  0  0
    1.4825   -0.5150    0.2375 C   0  0  0  0  0  0  0  0  0  0  0  0
    2.8944   -0.0620    0.2880 C   0  0  0  0  0  0  0  0  0  0  0  0
    3.9447   -0.9956    0.3889 C   0  0  0  0  0  0  0  0  0  0  0  0
    5.2742   -0.5650    0.4357 C   0  0  0  0  0  0  0  0  0  0  0  0
    5.5723    0.7979    0.3825 C   0  0  0  0  0  0  0  0  0  0  0  0
    4.5414    1.7341    0.2824 C   0  0  0  0  0  0  0  0  0  0  0  0
    3.2097    1.3101    0.2352 C   0  0  0  0  0  0  0  0  0  0  0  0
    0.4752    0.3891    0.1447 N   0  0  0  0  0  0  0  0  0  0  0  0
   -0.8275    0.0102    0.1004 C   0  0  0  0  0  0  0  0  0  0  0  0
   -1.8460    1.0697   -0.0172 C   0  0  0  0  0  0  0  0  0  0  0  0
   -2.5642    1.4675    1.1217 C   0  0  0  0  0  0  0  0  0  0  0  0
   -3.5190    2.4839    1.0328 C   0  0  0  0  0  0  0  0  0  0  0  0
   -3.7560    3.1164   -0.1898 C   0  0  0  0  0  0  0  0  0  0  0  0
   -3.0361    2.7364   -1.3257 C   0  0  0  0  0  0  0  0  0  0  0  0
   -2.0773    1.7190   -1.2461 C   0  0  0  0  0  0  0  0  0  0  0  0
   -1.1909    1.2722   -2.7000 Cl  0  0  0  0  0  0  0  0  0  0  0  0
   -2.8705   -1.2569   -1.8900 H   0  0  0  0  0  0  0  0  0  0  0  0
   -2.3325   -2.8438   -1.6985 H   0  0  0  0  0  0  0  0  0  0  0  0
   -3.3037   -1.0531    0.4624 H   0  0  0  0  0  0  0  0  0  0  0  0
   -2.7868   -2.7098    0.7042 H   0  0  0  0  0  0  0  0  0  0  0  0
    0.5050   -4.3518    0.3192 H   0  0  0  0  0  0  0  0  0  0  0  0
   -1.2473   -4.1441    0.0827 H   0  0  0  0  0  0  0  0  0  0  0  0
    3.7417   -2.0582    0.4320 H   0  0  0  0  0  0  0  0  0  0  0  0
    6.0744   -1.2898    0.5133 H   0  0  0  0  0  0  0  0  0  0  0  0
    6.6023    1.1287    0.4189 H   0  0  0  0  0  0  0  0  0  0  0  0
    4.7738    2.7905    0.2411 H   0  0  0  0  0  0  0  0  0  0  0  0
    2.4300    2.0572    0.1571 H   0  0  0  0  0  0  0  0  0  0  0  0
   -2.3857    0.9872    2.0761 H   0  0  0  0  0  0  0  0  0  0  0  0
   -4.0740    2.7828    1.9126 H   0  0  0  0  0  0  0  0  0  0  0  0
   -4.4956    3.9037   -0.2567 H   0  0  0  0  0  0  0  0  0  0  0  0
   -3.2233    3.2349   -2.2683 H   0  0  0  0  0  0  0  0  0  0  0  0
  1  2  1  0
  2  3  1  0
  3  4  2  0
  4  5  1  0
  4  6  1  0
  6  7  2  0
  7  8  1  0
  8  9  2  0
  9 10  1  0
 10 11  2  0
 11 12  1  0
 12 13  2  0
  7 14  1  0
 14 15  2  0
 15 16  1  0
 16 17  2  0
 17 18  1  0
 18 19  2  0
 19 20  1  0
 20 21  2  0
 21 22  1  0
 15  3  1  0
 21 16  1  0
 13  8  1  0
  1 23  1  0
  1 24  1  0
  2 25  1  0
  2 26  1  0
  5 27  1  0
  5 28  1  0
  9 29  1  0
 10 30  1  0
 11 31  1  0
 12 32  1  0
 13 33  1  0
 17 34  1  0
 18 35  1  0
 19 36  1  0
 20 37  1  0
M  END
$$$$
