
     RDKit          3D

 63 64  0  0  0  0  0  0  0  0999 V2000
   -0.4772   -4.7886   -1.4823 C   0  0  0  0  0  0  0  0  0  0  0  0
   -0.0536   -3.4669   -1.0087 N   0  0  0  0  0  0  0  0  0  0  0  0
    1.3523   -3.0716   -1.1339 C   0  0  0  0  0  0  0  0  0  0  0  0
   -1.0273   -2.6397   -0.3310 C   0  0  0  0  0  0  0  0  0  0  0  0
   -1.9846   -3.2022    0.2696 O   0  0  0  0  0  0  0  0  0  0  0  0
   -1.0226   -1.1181   -0.3737 C   0  0  1  0  0  0  0  0  0  0  0  0
    0.2548   -0.5085    0.2011 C   0  0  0  0  0  0  0  0  0  0  0  0
    0.4743   -0.6181    1.5867 C   0  0  0  0  0  0  0  0  0  0  0  0
    1.6274   -0.0954    2.1762 C   0  0  0  0  0  0  0  0  0  0  0  0
    2.5991    0.5482    1.3938 C   0  0  0  0  0  0  0  0  0  0  0  0
    3.8278    1.1012    2.0187 C   0  0  0  0  0  0  0  0  0  0  0  0
    5.0775    0.9630    1.3853 C   0  0  0  0  0  0  0  0  0  0  0  0
    6.2327    1.4840    1.9763 C   0  0  0  0  0  0  0  0  0  0  0  0
    6.1547    2.1481    3.2027 C   0  0  0  0  0  0  0  0  0  0  0  0
    7.2762    2.6527    3.7734 F   0  0  0  0  0  0  0  0  0  0  0  0
    4.9204    2.2918    3.8409 C   0  0  0  0  0  0  0  0  0  0  0  0
    3.7623    1.7719    3.2548 C   0  0  0  0  0  0  0  0  0  0  0  0
    2.3907    0.6554    0.0094 C   0  0  0  0  0  0  0  0  0  0  0  0
    1.2363    0.1339   -0.5806 C   0  0  0  0  0  0  0  0  0  0  0  0
   -1.5599   -0.5715   -1.7319 C   0  0  2  0  0  0  0  0  0  0  0  0
   -0.6769   -0.9009   -2.8551 N   0  0  0  0  0  0  0  0  0  0  0  0
   -1.8111    0.9244   -1.6552 C   0  0  0  0  0  0  0  0  0  0  0  0
   -0.9205    1.7212   -2.0594 O   0  0  0  0  0  0  0  0  0  0  0  0
   -3.0212    1.4606   -1.0822 N   0  0  0  0  0  0  0  0  0  0  0  0
   -3.1396    2.8584   -0.6978 C   0  0  0  0  0  0  0  0  0  0  0  0
   -4.5746    3.0390   -0.2199 C   0  0  0  0  0  0  0  0  0  0  0  0
   -5.1010    1.6322    0.0474 C   0  0  0  0  0  0  0  0  0  0  0  0
   -4.2301    0.6991   -0.7932 C   0  0  1  0  0  0  0  0  0  0  0  0
   -4.9069    0.3379   -2.0499 C   0  0  0  0  0  0  0  0  0  0  0  0
   -5.4376    0.0536   -3.0382 N   0  0  0  0  0  0  0  0  0  0  0  0
    0.8837   -0.0840   -1.4732 O   0  0  0  0  0  0  0  0  0  0  0  0
    0.4916   -0.0720   -0.2757 C   0  0  0  0  0  0  0  0  0  0  0  0
    1.3810   -0.3840    0.7482 O   0  0  0  0  0  0  0  0  0  0  0  0
   -0.9400    0.2184    0.0396 C   0  0  0  0  0  0  0  0  0  0  0  0
   -1.6859   -0.9351   -0.1116 F   0  0  0  0  0  0  0  0  0  0  0  0
   -1.4246    1.1910   -0.8162 F   0  0  0  0  0  0  0  0  0  0  0  0
   -1.0555    0.6675    1.3424 F   0  0  0  0  0  0  0  0  0  0  0  0
    0.3255   -5.2995   -2.0544 H   0  0  0  0  0  0  0  0  0  0  0  0
   -0.7543   -5.4279   -0.6176 H   0  0  0  0  0  0  0  0  0  0  0  0
   -1.3557   -4.6799   -2.1532 H   0  0  0  0  0  0  0  0  0  0  0  0
    1.7520   -2.7710   -0.1433 H   0  0  0  0  0  0  0  0  0  0  0  0
    1.9812   -3.9110   -1.4974 H   0  0  0  0  0  0  0  0  0  0  0  0
    1.4533   -2.2435   -1.8610 H   0  0  0  0  0  0  0  0  0  0  0  0
   -1.8067   -0.8101    0.3551 H   0  0  0  0  0  0  0  0  0  0  0  0
   -0.2520   -1.1186    2.2158 H   0  0  0  0  0  0  0  0  0  0  0  0
    1.7678   -0.2135    3.2433 H   0  0  0  0  0  0  0  0  0  0  0  0
    5.1643    0.4370    0.4429 H   0  0  0  0  0  0  0  0  0  0  0  0
    7.1895    1.3689    1.4832 H   0  0  0  0  0  0  0  0  0  0  0  0
    4.8588    2.8095    4.7896 H   0  0  0  0  0  0  0  0  0  0  0  0
    2.8141    1.9096    3.7591 H   0  0  0  0  0  0  0  0  0  0  0  0
    3.1165    1.1558   -0.6193 H   0  0  0  0  0  0  0  0  0  0  0  0
    1.1366    0.2313   -1.6485 H   0  0  0  0  0  0  0  0  0  0  0  0
   -2.5359   -1.0675   -1.9282 H   0  0  0  0  0  0  0  0  0  0  0  0
   -1.0525   -0.4449   -3.7188 H   0  0  0  0  0  0  0  0  0  0  0  0
   -0.7436   -1.9273   -3.0400 H   0  0  0  0  0  0  0  0  0  0  0  0
   -2.9320    3.5200   -1.5668 H   0  0  0  0  0  0  0  0  0  0  0  0
   -2.4253    3.0791    0.1250 H   0  0  0  0  0  0  0  0  0  0  0  0
   -4.6225    3.6703    0.6938 H   0  0  0  0  0  0  0  0  0  0  0  0
   -5.1792    3.5126   -1.0246 H   0  0  0  0  0  0  0  0  0  0  0  0
   -4.9573    1.3923    1.1243 H   0  0  0  0  0  0  0  0  0  0  0  0
   -6.1862    1.5527   -0.1873 H   0  0  0  0  0  0  0  0  0  0  0  0
   -3.9981   -0.2195   -0.2150 H   0  0  0  0  0  0  0  0  0  0  0  0
    2.3497   -0.6016    0.5466 H   0  0  0  0  0  0  0  0  0  0  0  0
  1  2  1  0
  2  3  1  0
  2  4  1  0
  4  5  2  0
  4  6  1  0
  6  7  1  0
  7  8  2  0
  8  9  1  0
  9 10  2  0
 10 11  1  0
 11 12  2  0
 12 13  1  0
 13 14  2  0
 14 15  1  0
 14 16  1  0
 16 17  2  0
 10 18  1  0
 18 19  2  0
  6 20  1  0
 20 21  1  0
 20 22  1  0
 22 23  2  0
 22 24  1  0
 24 25  1  0
 25 26  1  0
 26 27  1  0
 27 28  1  0
 28 29  1  0
 29 30  3  0
 31 32  2  0
 32 33  1  0
 32 34  1  0
 34 35  1  0
 34 36  1  0
 34 37  1  0
 19  7  1  0
 28 24  1  0
 17 11  1  0
  1 38  1  0
  1 39  1  0
  1 40  1  0
  3 41  1  0
  3 42  1  0
  3 43  1  0
  6 44  1  1
  8 45  1  0
  9 46  1  0
 12 47  1  0
 13 48  1  0
 16 49  1  0
 17 50  1  0
 18 51  1  0
 19 52  1  0
 20 53  1  6
 21 54  1  0
 21 55  1  0
 25 56  1  0
 25 57  1  0
 26 58  1  0
 26 59  1  0
 27 60  1  0
 27 61  1  0
 28 62  1  1
 33 63  1  0
M  END
$$$$
