
     RDKit          3D

 75 77  0  0  0  0  0  0  0  0999 V2000
    9.0569   -2.2101   -0.7521 C   0  0  0  0  0  0  0  0  0  0  0  0
    7.5707   -2.5165   -0.8964 C   0  0  0  0  0  0  0  0  0  0  0  0
    6.8037   -1.7075   -0.0074 O   0  0  0  0  0  0  0  0  0  0  0  0
    6.5494   -0.3490   -0.2280 C   0  0  0  0  0  0  0  0  0  0  0  0
    6.9424    0.2118   -1.2885 O   0  0  0  0  0  0  0  0  0  0  0  0
    5.8411    0.4427    0.8397 C   0  0  2  0  0  0  0  0  0  0  0  0
    5.1910    1.6286    0.2594 N   0  0  0  0  0  0  0  0  0  0  0  0
    3.7665    1.8304    0.2145 C   0  0  0  0  0  0  0  0  0  0  0  0
    2.9148    1.3426    1.2231 C   0  0  0  0  0  0  0  0  0  0  0  0
    1.5368    1.5676    1.1554 C   0  0  0  0  0  0  0  0  0  0  0  0
    0.9882    2.2943    0.0883 C   0  0  0  0  0  0  0  0  0  0  0  0
   -0.4971    2.5130   -0.0076 C   0  0  0  0  0  0  0  0  0  0  0  0
   -1.0564    1.7116   -1.0935 N   0  0  0  0  0  0  0  0  0  0  0  0
   -1.1810    0.2848   -1.0096 C   0  0  0  0  0  0  0  0  0  0  0  0
   -0.8427   -0.3206    0.0441 O   0  0  0  0  0  0  0  0  0  0  0  0
   -1.7307   -0.4968   -2.1697 C   0  0  1  0  0  0  0  0  0  0  0  0
   -0.5194   -1.7614   -2.6614 S   0  0  0  0  0  0  0  0  0  0  0  0
   -1.8363   -2.9819   -2.9047 C   0  0  0  0  0  0  0  0  0  0  0  0
   -3.0122   -2.6056   -2.0190 C   0  0  0  0  0  0  0  0  0  0  0  0
   -2.9771   -1.1651   -1.8006 N   0  0  0  0  0  0  0  0  0  0  0  0
   -4.1313   -0.4181   -1.3575 C   0  0  0  0  0  0  0  0  0  0  0  0
   -4.1613    0.8327   -1.5173 O   0  0  0  0  0  0  0  0  0  0  0  0
   -5.2937   -1.0752   -0.6566 C   0  0  0  0  0  0  0  0  0  0  0  0
   -5.2539   -0.8241    0.8698 C   0  0  2  0  0  0  0  0  0  0  0  0
   -4.0759   -1.4479    1.4799 N   0  0  0  0  0  0  0  0  0  0  0  0
   -6.5180   -1.3666    1.5667 C   0  0  0  0  0  0  0  0  0  0  0  0
   -7.7594   -0.5939    1.1895 C   0  0  0  0  0  0  0  0  0  0  0  0
   -8.6574   -1.1189    0.2440 C   0  0  0  0  0  0  0  0  0  0  0  0
   -9.7977   -0.3982   -0.1241 C   0  0  0  0  0  0  0  0  0  0  0  0
  -10.6565   -0.9134   -1.0384 F   0  0  0  0  0  0  0  0  0  0  0  0
  -10.0504    0.8523    0.4476 C   0  0  0  0  0  0  0  0  0  0  0  0
  -11.1556    1.5524    0.0910 F   0  0  0  0  0  0  0  0  0  0  0  0
   -9.1623    1.3832    1.3871 C   0  0  0  0  0  0  0  0  0  0  0  0
   -8.0196    0.6670    1.7585 C   0  0  0  0  0  0  0  0  0  0  0  0
   -7.1699    1.2015    2.6720 F   0  0  0  0  0  0  0  0  0  0  0  0
    1.8365    2.7943   -0.9099 C   0  0  0  0  0  0  0  0  0  0  0  0
    3.2143    2.5712   -0.8417 C   0  0  0  0  0  0  0  0  0  0  0  0
    6.8150    0.8309    1.9845 C   0  0  0  0  0  0  0  0  0  0  0  0
    7.9310    1.7886    1.5331 C   0  0  0  0  0  0  0  0  0  0  0  0
    6.0552    1.4304    3.1753 C   0  0  0  0  0  0  0  0  0  0  0  0
    9.6432   -2.8863   -1.4093 H   0  0  0  0  0  0  0  0  0  0  0  0
    9.2663   -1.1597   -1.0437 H   0  0  0  0  0  0  0  0  0  0  0  0
    9.3749   -2.3653    0.3005 H   0  0  0  0  0  0  0  0  0  0  0  0
    7.2429   -2.3571   -1.9467 H   0  0  0  0  0  0  0  0  0  0  0  0
    7.3999   -3.5833   -0.6400 H   0  0  0  0  0  0  0  0  0  0  0  0
    5.0779   -0.2447    1.2600 H   0  0  0  0  0  0  0  0  0  0  0  0
    5.7873    2.2973   -0.2795 H   0  0  0  0  0  0  0  0  0  0  0  0
    3.3051    0.8086    2.0770 H   0  0  0  0  0  0  0  0  0  0  0  0
    0.8989    1.1774    1.9388 H   0  0  0  0  0  0  0  0  0  0  0  0
   -0.6904    3.5894   -0.2076 H   0  0  0  0  0  0  0  0  0  0  0  0
   -1.0097    2.2615    0.9466 H   0  0  0  0  0  0  0  0  0  0  0  0
   -1.3838    2.2039   -1.9550 H   0  0  0  0  0  0  0  0  0  0  0  0
   -1.9145    0.1683   -3.0406 H   0  0  0  0  0  0  0  0  0  0  0  0
   -1.4666   -3.9997   -2.6591 H   0  0  0  0  0  0  0  0  0  0  0  0
   -2.1441   -2.9547   -3.9721 H   0  0  0  0  0  0  0  0  0  0  0  0
   -2.9396   -3.1278   -1.0411 H   0  0  0  0  0  0  0  0  0  0  0  0
   -3.9529   -2.9008   -2.5321 H   0  0  0  0  0  0  0  0  0  0  0  0
   -6.2231   -0.6415   -1.0821 H   0  0  0  0  0  0  0  0  0  0  0  0
   -5.3338   -2.1650   -0.8543 H   0  0  0  0  0  0  0  0  0  0  0  0
   -5.1997    0.2731    1.0523 H   0  0  0  0  0  0  0  0  0  0  0  0
   -4.0149   -2.4491    1.1822 H   0  0  0  0  0  0  0  0  0  0  0  0
   -3.2153   -0.9607    1.1430 H   0  0  0  0  0  0  0  0  0  0  0  0
   -6.6437   -2.4461    1.3283 H   0  0  0  0  0  0  0  0  0  0  0  0
   -6.3829   -1.3031    2.6689 H   0  0  0  0  0  0  0  0  0  0  0  0
   -8.4704   -2.0833   -0.2122 H   0  0  0  0  0  0  0  0  0  0  0  0
   -9.3590    2.3521    1.8279 H   0  0  0  0  0  0  0  0  0  0  0  0
    1.4294    3.3549   -1.7425 H   0  0  0  0  0  0  0  0  0  0  0  0
    3.8530    2.9656   -1.6221 H   0  0  0  0  0  0  0  0  0  0  0  0
    7.3040   -0.1011    2.3477 H   0  0  0  0  0  0  0  0  0  0  0  0
    8.4963    1.3606    0.6793 H   0  0  0  0  0  0  0  0  0  0  0  0
    8.6497    1.9483    2.3650 H   0  0  0  0  0  0  0  0  0  0  0  0
    7.5175    2.7759    1.2387 H   0  0  0  0  0  0  0  0  0  0  0  0
    5.3044    0.7057    3.5552 H   0  0  0  0  0  0  0  0  0  0  0  0
    5.5370    2.3684    2.8820 H   0  0  0  0  0  0  0  0  0  0  0  0
    6.7589    1.6571    4.0045 H   0  0  0  0  0  0  0  0  0  0  0  0
  1  2  1  0
  2  3  1  0
  3  4  1  0
  4  5  2  0
  4  6  1  0
  6  7  1  0
  7  8  1  0
  8  9  2  0
  9 10  1  0
 10 11  2  0
 11 12  1  0
 12 13  1  0
 13 14  1  0
 14 15  2  0
 14 16  1  0
 16 17  1  0
 17 18  1  0
 18 19  1  0
 19 20  1  0
 20 21  1  0
 21 22  2  0
 21 23  1  0
 23 24  1  0
 24 25  1  0
 24 26  1  0
 26 27  1  0
 27 28  2  0
 28 29  1  0
 29 30  1  0
 29 31  2  0
 31 32  1  0
 31 33  1  0
 33 34  2  0
 34 35  1  0
 11 36  1  0
 36 37  2  0
  6 38  1  0
 38 39  1  0
 38 40  1  0
 37  8  1  0
 20 16  1  0
 34 27  1  0
  1 41  1  0
  1 42  1  0
  1 43  1  0
  2 44  1  0
  2 45  1  0
  6 46  1  1
  7 47  1  0
  9 48  1  0
 10 49  1  0
 12 50  1  0
 12 51  1  0
 13 52  1  0
 16 53  1  6
 18 54  1  0
 18 55  1  0
 19 56  1  0
 19 57  1  0
 23 58  1  0
 23 59  1  0
 24 60  1  6
 25 61  1  0
 25 62  1  0
 26 63  1  0
 26 64  1  0
 28 65  1  0
 33 66  1  0
 36 67  1  0
 37 68  1  0
 38 69  1  0
 39 70  1  0
 39 71  1  0
 39 72  1  0
 40 73  1  0
 40 74  1  0
 40 75  1  0
M  END
$$$$
