
     RDKit          3D

 57 61  0  0  0  0  0  0  0  0999 V2000
    3.0078   -2.4366   -1.4630 N   0  0  0  0  0  0  0  0  0  0  0  0
    2.9093   -1.2253   -0.7178 C   0  0  0  0  0  0  0  0  0  0  0  0
    1.7053   -0.6224   -0.5574 N   0  0  0  0  0  0  0  0  0  0  0  0
    1.6039    0.5318    0.1523 C   0  0  0  0  0  0  0  0  0  0  0  0
    0.3367    1.1843    0.3345 N   0  0  0  0  0  0  0  0  0  0  0  0
   -0.9128    0.7236   -0.2016 C   0  0  0  0  0  0  0  0  0  0  0  0
   -0.9788   -0.3592   -0.9158 N   0  0  0  0  0  0  0  0  0  0  0  0
   -2.2198   -0.8697   -1.4272 C   0  0  0  0  0  0  0  0  0  0  0  0
   -2.2163   -2.1830   -2.1212 C   0  0  0  0  0  0  0  0  0  0  0  0
   -3.3354   -3.0402   -2.0903 C   0  0  0  0  0  0  0  0  0  0  0  0
   -3.2960   -4.2794   -2.7370 C   0  0  0  0  0  0  0  0  0  0  0  0
   -2.1425   -4.6817   -3.4132 C   0  0  0  0  0  0  0  0  0  0  0  0
   -1.0231   -3.8477   -3.4404 C   0  0  0  0  0  0  0  0  0  0  0  0
   -1.0563   -2.6076   -2.7961 C   0  0  0  0  0  0  0  0  0  0  0  0
   -3.3463   -0.1537   -1.2677 C   0  0  0  0  0  0  0  0  0  0  0  0
   -3.2912    1.2239   -0.6593 C   0  0  0  0  0  0  0  0  0  0  0  0
   -4.5023    1.4809    0.2149 C   0  0  0  0  0  0  0  0  0  0  0  0
   -5.5769    2.2054   -0.3362 C   0  0  0  0  0  0  0  0  0  0  0  0
   -6.6995    2.5157    0.4323 C   0  0  0  0  0  0  0  0  0  0  0  0
   -6.7703    2.1075    1.7621 C   0  0  0  0  0  0  0  0  0  0  0  0
   -5.7262    1.3729    2.3241 C   0  0  0  0  0  0  0  0  0  0  0  0
   -4.5957    1.0317    1.5622 C   0  0  0  0  0  0  0  0  0  0  0  0
   -3.5657    0.2428    2.1779 N   0  0  0  0  0  0  0  0  0  0  0  0
   -3.1276   -0.7761    1.6070 O   0  0  0  0  0  0  0  0  0  0  0  0
   -3.2450    0.4511    3.4995 O   0  0  0  0  0  0  0  0  0  0  0  0
   -2.0822    1.4390    0.0743 O   0  0  0  0  0  0  0  0  0  0  0  0
    2.7199    1.0769    0.7011 N   0  0  0  0  0  0  0  0  0  0  0  0
    3.9334    0.4816    0.5469 C   0  0  0  0  0  0  0  0  0  0  0  0
    5.1151    1.0683    1.1331 N   0  0  0  0  0  0  0  0  0  0  0  0
    5.0430    2.4063    1.7369 C   0  0  0  0  0  0  0  0  0  0  0  0
    6.1754    2.6004    2.7495 C   0  0  0  0  0  0  0  0  0  0  0  0
    7.4237    2.2644    2.1786 O   0  0  0  0  0  0  0  0  0  0  0  0
    7.4535    0.8801    1.8953 C   0  0  0  0  0  0  0  0  0  0  0  0
    6.4403    0.5255    0.8030 C   0  0  0  0  0  0  0  0  0  0  0  0
    4.0192   -0.6731   -0.1665 N   0  0  0  0  0  0  0  0  0  0  0  0
    3.9323   -2.9047   -1.5908 H   0  0  0  0  0  0  0  0  0  0  0  0
    2.1563   -2.8679   -1.8862 H   0  0  0  0  0  0  0  0  0  0  0  0
    0.3191    2.0621    0.9007 H   0  0  0  0  0  0  0  0  0  0  0  0
   -4.2317   -2.7694   -1.5481 H   0  0  0  0  0  0  0  0  0  0  0  0
   -4.1590   -4.9321   -2.7069 H   0  0  0  0  0  0  0  0  0  0  0  0
   -2.1142   -5.6421   -3.9115 H   0  0  0  0  0  0  0  0  0  0  0  0
   -0.1278   -4.1620   -3.9613 H   0  0  0  0  0  0  0  0  0  0  0  0
   -0.1780   -1.9753   -2.8358 H   0  0  0  0  0  0  0  0  0  0  0  0
   -4.2840   -0.4895   -1.6925 H   0  0  0  0  0  0  0  0  0  0  0  0
   -3.2833    1.9434   -1.5072 H   0  0  0  0  0  0  0  0  0  0  0  0
   -5.5426    2.5429   -1.3649 H   0  0  0  0  0  0  0  0  0  0  0  0
   -7.5142    3.0795   -0.0037 H   0  0  0  0  0  0  0  0  0  0  0  0
   -7.6402    2.3536    2.3574 H   0  0  0  0  0  0  0  0  0  0  0  0
   -5.8085    1.0480    3.3537 H   0  0  0  0  0  0  0  0  0  0  0  0
    5.1250    3.1722    0.9357 H   0  0  0  0  0  0  0  0  0  0  0  0
    4.0770    2.5486    2.2678 H   0  0  0  0  0  0  0  0  0  0  0  0
    5.9796    2.0072    3.6723 H   0  0  0  0  0  0  0  0  0  0  0  0
    6.2020    3.6684    3.0523 H   0  0  0  0  0  0  0  0  0  0  0  0
    8.4704    0.6153    1.5363 H   0  0  0  0  0  0  0  0  0  0  0  0
    7.2663    0.2752    2.8123 H   0  0  0  0  0  0  0  0  0  0  0  0
    6.7761    0.9500   -0.1678 H   0  0  0  0  0  0  0  0  0  0  0  0
    6.4027   -0.5816    0.7133 H   0  0  0  0  0  0  0  0  0  0  0  0
  1  2  1  0
  2  3  2  0
  3  4  1  0
  4  5  1  0
  5  6  1  0
  6  7  2  0
  7  8  1  0
  8  9  1  0
  9 10  2  0
 10 11  1  0
 11 12  2  0
 12 13  1  0
 13 14  2  0
  8 15  2  0
 15 16  1  0
 16 17  1  0
 17 18  2  0
 18 19  1  0
 19 20  2  0
 20 21  1  0
 21 22  2  0
 22 23  1  0
 23 24  2  0
 23 25  1  0
 16 26  1  0
  4 27  2  0
 27 28  1  0
 28 29  1  0
 29 30  1  0
 30 31  1  0
 31 32  1  0
 32 33  1  0
 33 34  1  0
 28 35  2  0
 35  2  1  0
 26  6  1  0
 34 29  1  0
 14  9  1  0
 22 17  1  0
  1 36  1  0
  1 37  1  0
  5 38  1  0
 10 39  1  0
 11 40  1  0
 12 41  1  0
 13 42  1  0
 14 43  1  0
 15 44  1  0
 16 45  1  0
 18 46  1  0
 19 47  1  0
 20 48  1  0
 21 49  1  0
 30 50  1  0
 30 51  1  0
 31 52  1  0
 31 53  1  0
 33 54  1  0
 33 55  1  0
 34 56  1  0
 34 57  1  0
M  CHG  2  23   1  25  -1
M  END
$$$$
