
     RDKit          3D

 43 45  0  0  0  0  0  0  0  0999 V2000
    2.3577    2.2673   -0.0234 N   0  0  0  0  0  0  0  0  0  0  0  0
    1.9312    1.2836    0.9779 C   0  0  1  0  0  0  0  0  0  0  0  0
    0.6131    1.7304    1.6484 C   0  0  0  0  0  0  0  0  0  0  0  0
   -0.5011    1.9415    0.6507 C   0  0  0  0  0  0  0  0  0  0  0  0
   -0.5527    3.0390    0.0315 O   0  0  0  0  0  0  0  0  0  0  0  0
   -1.4628    0.9094    0.3488 N   0  0  0  0  0  0  0  0  0  0  0  0
   -1.9071    0.7207   -1.0454 C   0  0  0  0  0  0  0  0  0  0  0  0
   -3.4281    0.5377   -1.1060 C   0  0  0  0  0  0  0  0  0  0  0  0
   -3.8445   -0.4160   -0.0832 N   0  0  0  0  0  0  0  0  0  0  0  0
   -3.1849   -0.6739    1.0536 C   0  0  0  0  0  0  0  0  0  0  0  0
   -3.8668   -1.5254    1.8426 N   0  0  0  0  0  0  0  0  0  0  0  0
   -4.9993   -1.8051    1.2086 N   0  0  0  0  0  0  0  0  0  0  0  0
   -4.9856   -1.1183    0.0464 C   0  0  0  0  0  0  0  0  0  0  0  0
   -6.0950   -1.1498   -0.9597 C   0  0  0  0  0  0  0  0  0  0  0  0
   -7.1621   -1.8815   -0.4707 F   0  0  0  0  0  0  0  0  0  0  0  0
   -5.6438   -1.7362   -2.1272 F   0  0  0  0  0  0  0  0  0  0  0  0
   -6.5186    0.1386   -1.2275 F   0  0  0  0  0  0  0  0  0  0  0  0
   -1.8514   -0.0759    1.3752 C   0  0  0  0  0  0  0  0  0  0  0  0
    1.7858   -0.1158    0.3406 C   0  0  0  0  0  0  0  0  0  0  0  0
    3.1140   -0.6734   -0.1041 C   0  0  0  0  0  0  0  0  0  0  0  0
    3.9914   -1.2382    0.8342 C   0  0  0  0  0  0  0  0  0  0  0  0
    5.2322   -1.7360    0.4284 C   0  0  0  0  0  0  0  0  0  0  0  0
    5.6132   -1.6715   -0.9163 C   0  0  0  0  0  0  0  0  0  0  0  0
    7.1834   -2.3070   -1.3882 Cl  0  0  0  0  0  0  0  0  0  0  0  0
    4.7433   -1.1015   -1.8613 C   0  0  0  0  0  0  0  0  0  0  0  0
    5.1862   -0.9943   -3.5596 Cl  0  0  0  0  0  0  0  0  0  0  0  0
    3.5003   -0.6039   -1.4525 C   0  0  0  0  0  0  0  0  0  0  0  0
    2.4273    3.2027    0.4397 H   0  0  0  0  0  0  0  0  0  0  0  0
    3.3313    2.0354   -0.3259 H   0  0  0  0  0  0  0  0  0  0  0  0
    2.7028    1.2273    1.7801 H   0  0  0  0  0  0  0  0  0  0  0  0
    0.7896    2.6859    2.1889 H   0  0  0  0  0  0  0  0  0  0  0  0
    0.3279    0.9915    2.4244 H   0  0  0  0  0  0  0  0  0  0  0  0
   -1.6222    1.5824   -1.6867 H   0  0  0  0  0  0  0  0  0  0  0  0
   -1.4131   -0.1850   -1.4593 H   0  0  0  0  0  0  0  0  0  0  0  0
   -3.7180    0.1714   -2.1138 H   0  0  0  0  0  0  0  0  0  0  0  0
   -3.9269    1.5128   -0.9188 H   0  0  0  0  0  0  0  0  0  0  0  0
   -1.0916   -0.8829    1.4269 H   0  0  0  0  0  0  0  0  0  0  0  0
   -1.9335    0.4205    2.3657 H   0  0  0  0  0  0  0  0  0  0  0  0
    1.0850   -0.0689   -0.5211 H   0  0  0  0  0  0  0  0  0  0  0  0
    1.3429   -0.8169    1.0810 H   0  0  0  0  0  0  0  0  0  0  0  0
    3.7141   -1.2912    1.8799 H   0  0  0  0  0  0  0  0  0  0  0  0
    5.8990   -2.1708    1.1621 H   0  0  0  0  0  0  0  0  0  0  0  0
    2.8373   -0.1590   -2.1847 H   0  0  0  0  0  0  0  0  0  0  0  0
  1  2  1  0
  2  3  1  0
  3  4  1  0
  4  5  2  0
  4  6  1  0
  6  7  1  0
  7  8  1  0
  8  9  1  0
  9 10  1  0
 10 11  2  0
 11 12  1  0
 12 13  2  0
 13 14  1  0
 14 15  1  0
 14 16  1  0
 14 17  1  0
 10 18  1  0
  2 19  1  0
 19 20  1  0
 20 21  2  0
 21 22  1  0
 22 23  2  0
 23 24  1  0
 23 25  1  0
 25 26  1  0
 25 27  2  0
 18  6  1  0
 27 20  1  0
 13  9  1  0
  1 28  1  0
  1 29  1  0
  2 30  1  1
  3 31  1  0
  3 32  1  0
  7 33  1  0
  7 34  1  0
  8 35  1  0
  8 36  1  0
 18 37  1  0
 18 38  1  0
 19 39  1  0
 19 40  1  0
 21 41  1  0
 22 42  1  0
 27 43  1  0
M  END
$$$$
