
     RDKit          3D

 56 60  0  0  0  0  0  0  0  0999 V2000
   -0.1525   -1.3748    2.9711 C   0  0  0  0  0  0  0  0  0  0  0  0
   -0.9063   -1.4348    1.7193 C   0  0  0  0  0  0  0  0  0  0  0  0
   -1.5194   -1.4818    0.6827 C   0  0  0  0  0  0  0  0  0  0  0  0
   -2.2457   -1.5329   -0.5910 C   0  0  0  0  0  0  0  0  0  0  0  0
   -1.9053   -0.3641   -1.4079 N   0  0  0  0  0  0  0  0  0  0  0  0
   -2.6469    0.7607   -1.6016 C   0  0  0  0  0  0  0  0  0  0  0  0
   -3.9993    0.9088   -1.1509 N   0  0  0  0  0  0  0  0  0  0  0  0
   -4.3488    2.0723   -0.3305 C   0  0  0  0  0  0  0  0  0  0  0  0
   -5.8118    2.0008    0.1126 C   0  0  0  0  0  0  0  0  0  0  0  0
   -6.1422    0.6158    0.4592 N   0  0  0  0  0  0  0  0  0  0  0  0
   -6.1547   -0.2547   -0.7310 C   0  0  0  0  0  0  0  0  0  0  0  0
   -5.0613    0.1028   -1.7620 C   0  0  0  0  0  0  0  0  0  0  0  0
   -1.9762    1.7614   -2.2299 N   0  0  0  0  0  0  0  0  0  0  0  0
   -0.7660    1.2138   -2.4381 C   0  0  0  0  0  0  0  0  0  0  0  0
    0.3516    1.8088   -2.9982 C   0  0  0  0  0  0  0  0  0  0  0  0
    1.5061    1.0824   -3.0310 N   0  0  0  0  0  0  0  0  0  0  0  0
    1.5803   -0.1742   -2.5572 N   0  0  0  0  0  0  0  0  0  0  0  0
    2.8829   -0.8454   -2.5728 C   0  0  0  0  0  0  0  0  0  0  0  0
    3.5493   -0.6853   -1.2423 C   0  0  0  0  0  0  0  0  0  0  0  0
    3.2802   -1.5615   -0.2394 N   0  0  0  0  0  0  0  0  0  0  0  0
    3.8159   -1.4174    1.0021 C   0  0  0  0  0  0  0  0  0  0  0  0
    3.4672   -2.4312    2.0527 C   0  0  0  0  0  0  0  0  0  0  0  0
    4.6729   -0.3257    1.2609 C   0  0  0  0  0  0  0  0  0  0  0  0
    5.2746   -0.1027    2.5155 C   0  0  0  0  0  0  0  0  0  0  0  0
    6.1089    1.0028    2.7078 C   0  0  0  0  0  0  0  0  0  0  0  0
    6.3514    1.8933    1.6590 C   0  0  0  0  0  0  0  0  0  0  0  0
    5.7621    1.6834    0.4100 C   0  0  0  0  0  0  0  0  0  0  0  0
    4.9268    0.5794    0.2048 C   0  0  0  0  0  0  0  0  0  0  0  0
    4.3564    0.3817   -1.0111 N   0  0  0  0  0  0  0  0  0  0  0  0
    0.4766   -0.7809   -2.0005 C   0  0  0  0  0  0  0  0  0  0  0  0
    0.5380   -1.9561   -1.5472 O   0  0  0  0  0  0  0  0  0  0  0  0
   -0.7121   -0.0514   -1.9510 C   0  0  0  0  0  0  0  0  0  0  0  0
   -0.8321   -1.0871    3.7993 H   0  0  0  0  0  0  0  0  0  0  0  0
    0.2907   -2.3694    3.1837 H   0  0  0  0  0  0  0  0  0  0  0  0
    0.6572   -0.6219    2.8781 H   0  0  0  0  0  0  0  0  0  0  0  0
   -1.9802   -2.4636   -1.1338 H   0  0  0  0  0  0  0  0  0  0  0  0
   -3.3310   -1.5642   -0.3721 H   0  0  0  0  0  0  0  0  0  0  0  0
   -3.7013    2.0818    0.5736 H   0  0  0  0  0  0  0  0  0  0  0  0
   -4.1741    3.0092   -0.9021 H   0  0  0  0  0  0  0  0  0  0  0  0
   -5.9578    2.6543    1.0001 H   0  0  0  0  0  0  0  0  0  0  0  0
   -6.4800    2.3692   -0.6989 H   0  0  0  0  0  0  0  0  0  0  0  0
   -7.0999    0.6045    0.8820 H   0  0  0  0  0  0  0  0  0  0  0  0
   -7.1506   -0.2102   -1.2270 H   0  0  0  0  0  0  0  0  0  0  0  0
   -6.0010   -1.3018   -0.3933 H   0  0  0  0  0  0  0  0  0  0  0  0
   -5.5167    0.6916   -2.5878 H   0  0  0  0  0  0  0  0  0  0  0  0
   -4.6497   -0.8268   -2.2122 H   0  0  0  0  0  0  0  0  0  0  0  0
    0.3240    2.8221   -3.3759 H   0  0  0  0  0  0  0  0  0  0  0  0
    2.7642   -1.9246   -2.8134 H   0  0  0  0  0  0  0  0  0  0  0  0
    3.5273   -0.4079   -3.3670 H   0  0  0  0  0  0  0  0  0  0  0  0
    2.9953   -1.9293    2.9231 H   0  0  0  0  0  0  0  0  0  0  0  0
    4.3836   -2.9651    2.3806 H   0  0  0  0  0  0  0  0  0  0  0  0
    2.7493   -3.1780    1.6513 H   0  0  0  0  0  0  0  0  0  0  0  0
    5.1079   -0.7729    3.3483 H   0  0  0  0  0  0  0  0  0  0  0  0
    6.5686    1.1700    3.6734 H   0  0  0  0  0  0  0  0  0  0  0  0
    6.9975    2.7476    1.8145 H   0  0  0  0  0  0  0  0  0  0  0  0
    5.9561    2.3791   -0.3971 H   0  0  0  0  0  0  0  0  0  0  0  0
  1  2  1  0
  2  3  3  0
  3  4  1  0
  4  5  1  0
  5  6  1  0
  6  7  1  0
  7  8  1  0
  8  9  1  0
  9 10  1  0
 10 11  1  0
 11 12  1  0
  6 13  2  0
 13 14  1  0
 14 15  1  0
 15 16  2  0
 16 17  1  0
 17 18  1  0
 18 19  1  0
 19 20  2  0
 20 21  1  0
 21 22  1  0
 21 23  2  0
 23 24  1  0
 24 25  2  0
 25 26  1  0
 26 27  2  0
 27 28  1  0
 28 29  2  0
 17 30  1  0
 30 31  2  0
 30 32  1  0
 32  5  1  0
 12  7  1  0
 32 14  2  0
 29 19  1  0
 28 23  1  0
  1 33  1  0
  1 34  1  0
  1 35  1  0
  4 36  1  0
  4 37  1  0
  8 38  1  0
  8 39  1  0
  9 40  1  0
  9 41  1  0
 10 42  1  0
 11 43  1  0
 11 44  1  0
 12 45  1  0
 12 46  1  0
 15 47  1  0
 18 48  1  0
 18 49  1  0
 22 50  1  0
 22 51  1  0
 22 52  1  0
 24 53  1  0
 25 54  1  0
 26 55  1  0
 27 56  1  0
M  END
$$$$
