
     RDKit          3D

 39 41  0  0  0  0  0  0  0  0999 V2000
   -3.3702   -0.3766   -3.4785 N   0  0  0  0  0  0  0  0  0  0  0  0
   -3.2038   -0.4363   -2.3349 C   0  0  0  0  0  0  0  0  0  0  0  0
   -2.9915   -0.5114   -0.8801 C   0  0  2  0  0  0  0  0  0  0  0  0
   -4.0170   -1.4373   -0.2265 C   0  0  0  0  0  0  0  0  0  0  0  0
   -5.0972   -0.5198    0.3392 C   0  0  0  0  0  0  0  0  0  0  0  0
   -4.4273    0.8348    0.5304 C   0  0  0  0  0  0  0  0  0  0  0  0
   -3.2181    0.7956   -0.2764 N   0  0  0  0  0  0  0  0  0  0  0  0
   -2.3078    1.9103   -0.3530 C   0  0  0  0  0  0  0  0  0  0  0  0
   -2.6184    3.0067    0.1866 O   0  0  0  0  0  0  0  0  0  0  0  0
   -0.9663    1.7869   -1.0198 C   0  0  0  0  0  0  0  0  0  0  0  0
   -0.0521    0.9992   -0.1950 N   0  0  0  0  0  0  0  0  0  0  0  0
    1.2556    0.6397   -0.6607 C   0  0  0  0  0  0  0  0  0  0  0  0
    1.6710    1.0761   -1.7688 O   0  0  0  0  0  0  0  0  0  0  0  0
    2.0998   -0.2844    0.1306 C   0  0  0  0  0  0  0  0  0  0  0  0
    1.5060   -1.4550    0.6349 C   0  0  0  0  0  0  0  0  0  0  0  0
    2.2606   -2.3940    1.3389 C   0  0  0  0  0  0  0  0  0  0  0  0
    3.6210   -2.1829    1.5547 C   0  0  0  0  0  0  0  0  0  0  0  0
    4.2354   -1.0213    1.0801 C   0  0  0  0  0  0  0  0  0  0  0  0
    5.5602   -0.8209    1.3162 N   0  0  0  0  0  0  0  0  0  0  0  0
    6.2023    0.3004    0.8992 C   0  0  0  0  0  0  0  0  0  0  0  0
    5.5014    1.2949    0.2194 C   0  0  0  0  0  0  0  0  0  0  0  0
    4.1410    1.1240   -0.0409 C   0  0  0  0  0  0  0  0  0  0  0  0
    3.4811   -0.0523    0.3691 C   0  0  0  0  0  0  0  0  0  0  0  0
   -1.9635   -0.8751   -0.6686 H   0  0  0  0  0  0  0  0  0  0  0  0
   -4.4464   -2.1859   -0.9295 H   0  0  0  0  0  0  0  0  0  0  0  0
   -3.5315   -1.9830    0.6127 H   0  0  0  0  0  0  0  0  0  0  0  0
   -5.5022   -0.9125    1.2971 H   0  0  0  0  0  0  0  0  0  0  0  0
   -5.9250   -0.4260   -0.3978 H   0  0  0  0  0  0  0  0  0  0  0  0
   -4.1581    0.9859    1.5985 H   0  0  0  0  0  0  0  0  0  0  0  0
   -5.0954    1.6548    0.1884 H   0  0  0  0  0  0  0  0  0  0  0  0
   -0.5321    2.7969   -1.1843 H   0  0  0  0  0  0  0  0  0  0  0  0
   -1.0866    1.3049   -2.0121 H   0  0  0  0  0  0  0  0  0  0  0  0
   -0.3492    0.6902    0.7592 H   0  0  0  0  0  0  0  0  0  0  0  0
    0.4559   -1.6572    0.4604 H   0  0  0  0  0  0  0  0  0  0  0  0
    1.7893   -3.2944    1.7115 H   0  0  0  0  0  0  0  0  0  0  0  0
    4.1964   -2.9214    2.0995 H   0  0  0  0  0  0  0  0  0  0  0  0
    7.2568    0.4245    1.1061 H   0  0  0  0  0  0  0  0  0  0  0  0
    6.0082    2.1970   -0.0985 H   0  0  0  0  0  0  0  0  0  0  0  0
    3.6178    1.9250   -0.5431 H   0  0  0  0  0  0  0  0  0  0  0  0
  1  2  3  0
  2  3  1  0
  3  4  1  0
  4  5  1  0
  5  6  1  0
  6  7  1  0
  7  8  1  0
  8  9  2  0
  8 10  1  0
 10 11  1  0
 11 12  1  0
 12 13  2  0
 12 14  1  0
 14 15  2  0
 15 16  1  0
 16 17  2  0
 17 18  1  0
 18 19  2  0
 19 20  1  0
 20 21  2  0
 21 22  1  0
 22 23  2  0
  7  3  1  0
 23 14  1  0
 23 18  1  0
  3 24  1  6
  4 25  1  0
  4 26  1  0
  5 27  1  0
  5 28  1  0
  6 29  1  0
  6 30  1  0
 10 31  1  0
 10 32  1  0
 11 33  1  0
 15 34  1  0
 16 35  1  0
 17 36  1  0
 20 37  1  0
 21 38  1  0
 22 39  1  0
M  END
$$$$
