
     RDKit          3D

 35 37  0  0  0  0  0  0  0  0999 V2000
   -2.6508    1.5493    1.2903 C   0  0  0  0  0  0  0  0  0  0  0  0
   -2.2659    0.0790    1.4177 C   0  0  0  0  0  0  0  0  0  0  0  0
   -2.4063   -0.6314    0.0925 C   0  0  0  0  0  0  0  0  0  0  0  0
   -3.6505   -1.1825   -0.2607 C   0  0  0  0  0  0  0  0  0  0  0  0
   -3.8227   -1.8128   -1.4955 C   0  0  0  0  0  0  0  0  0  0  0  0
   -2.7591   -1.8921   -2.3955 C   0  0  0  0  0  0  0  0  0  0  0  0
   -1.5207   -1.3389   -2.0647 C   0  0  0  0  0  0  0  0  0  0  0  0
   -1.3346   -0.7046   -0.8279 C   0  0  0  0  0  0  0  0  0  0  0  0
   -0.0507   -0.1400   -0.5178 N   0  0  0  0  0  0  0  0  0  0  0  0
    0.3036    1.1574   -1.0232 C   0  0  0  0  0  0  0  0  0  0  0  0
   -0.4494    1.7417   -1.8493 O   0  0  0  0  0  0  0  0  0  0  0  0
    1.5230    1.8754   -0.5202 C   0  0  0  0  0  0  0  0  0  0  0  0
    2.5709    0.9535    0.0551 C   0  0  0  0  0  0  0  0  0  0  0  0
    3.8637    1.4576    0.2749 C   0  0  0  0  0  0  0  0  0  0  0  0
    4.8460    0.6589    0.8640 C   0  0  0  0  0  0  0  0  0  0  0  0
    4.5453   -0.6469    1.2519 C   0  0  0  0  0  0  0  0  0  0  0  0
    3.2615   -1.1587    1.0517 C   0  0  0  0  0  0  0  0  0  0  0  0
    2.2642   -0.3653    0.4553 C   0  0  0  0  0  0  0  0  0  0  0  0
    0.9100   -0.9066    0.2245 C   0  0  0  0  0  0  0  0  0  0  0  0
    0.6007   -2.0487    0.6643 O   0  0  0  0  0  0  0  0  0  0  0  0
   -1.9837    2.0641    0.5678 H   0  0  0  0  0  0  0  0  0  0  0  0
   -3.7035    1.6442    0.9480 H   0  0  0  0  0  0  0  0  0  0  0  0
   -2.5524    2.0461    2.2783 H   0  0  0  0  0  0  0  0  0  0  0  0
   -2.9213   -0.4019    2.1763 H   0  0  0  0  0  0  0  0  0  0  0  0
   -1.2273    0.0038    1.8020 H   0  0  0  0  0  0  0  0  0  0  0  0
   -4.4900   -1.1208    0.4210 H   0  0  0  0  0  0  0  0  0  0  0  0
   -4.7837   -2.2370   -1.7564 H   0  0  0  0  0  0  0  0  0  0  0  0
   -2.8954   -2.3797   -3.3521 H   0  0  0  0  0  0  0  0  0  0  0  0
   -0.7020   -1.4011   -2.7707 H   0  0  0  0  0  0  0  0  0  0  0  0
    1.9657    2.4561   -1.3588 H   0  0  0  0  0  0  0  0  0  0  0  0
    1.2077    2.5911    0.2683 H   0  0  0  0  0  0  0  0  0  0  0  0
    4.1091    2.4745   -0.0062 H   0  0  0  0  0  0  0  0  0  0  0  0
    5.8401    1.0553    1.0258 H   0  0  0  0  0  0  0  0  0  0  0  0
    5.3078   -1.2634    1.7101 H   0  0  0  0  0  0  0  0  0  0  0  0
    3.0509   -2.1754    1.3594 H   0  0  0  0  0  0  0  0  0  0  0  0
  1  2  1  0
  2  3  1  0
  3  4  2  0
  4  5  1  0
  5  6  2  0
  6  7  1  0
  7  8  2  0
  8  9  1  0
  9 10  1  0
 10 11  2  0
 10 12  1  0
 12 13  1  0
 13 14  2  0
 14 15  1  0
 15 16  2  0
 16 17  1  0
 17 18  2  0
 18 19  1  0
 19 20  2  0
  8  3  1  0
 19  9  1  0
 18 13  1  0
  1 21  1  0
  1 22  1  0
  1 23  1  0
  2 24  1  0
  2 25  1  0
  4 26  1  0
  5 27  1  0
  6 28  1  0
  7 29  1  0
 12 30  1  0
 12 31  1  0
 14 32  1  0
 15 33  1  0
 16 34  1  0
 17 35  1  0
M  END
$$$$
