
     RDKit          3D

 77 79  0  0  0  0  0  0  0  0999 V2000
    1.9710   -3.5861    2.9083 C   0  0  0  0  0  0  0  0  0  0  0  0
    2.2861   -3.5194    1.4114 C   0  0  0  0  0  0  0  0  0  0  0  0
    2.6428   -2.1012    0.9123 C   0  0  2  0  0  0  0  0  0  0  0  0
    3.8090   -1.5595    1.6407 N   0  0  0  0  0  0  0  0  0  0  0  0
    4.4308   -0.4145    0.9445 C   0  0  1  0  0  0  0  0  0  0  0  0
    5.2451    0.4098    1.9657 C   0  0  0  0  0  0  0  0  0  0  0  0
    5.5123    1.8599    1.5226 C   0  0  0  0  0  0  0  0  0  0  0  0
    6.4319    1.9470    0.3320 C   0  0  0  0  0  0  0  0  0  0  0  0
    5.9299    2.3067   -0.9307 C   0  0  0  0  0  0  0  0  0  0  0  0
    6.7818    2.3593   -2.0381 C   0  0  0  0  0  0  0  0  0  0  0  0
    8.1383    2.0563   -1.8936 C   0  0  0  0  0  0  0  0  0  0  0  0
    8.6459    1.7013   -0.6409 C   0  0  0  0  0  0  0  0  0  0  0  0
    7.7977    1.6472    0.4694 C   0  0  0  0  0  0  0  0  0  0  0  0
    5.3002   -0.8930   -0.1953 C   0  0  0  0  0  0  0  0  0  0  0  0
    4.9484   -0.6840   -1.3869 O   0  0  0  0  0  0  0  0  0  0  0  0
    6.4777   -1.5887    0.0642 O   0  0  0  0  0  0  0  0  0  0  0  0
    1.4476   -1.1804    1.0601 C   0  0  0  0  0  0  0  0  0  0  0  0
    1.3139   -0.5181    2.1258 O   0  0  0  0  0  0  0  0  0  0  0  0
    0.4206   -1.1027    0.0524 N   0  0  0  0  0  0  0  0  0  0  0  0
   -0.9302   -0.6691    0.3667 C   0  0  0  0  0  0  0  0  0  0  0  0
   -1.7873   -1.1275   -0.8100 C   0  0  1  0  0  0  0  0  0  0  0  0
   -2.8577   -0.1687   -1.1050 N   0  0  0  0  0  0  0  0  0  0  0  0
   -3.9724    0.0169   -0.2208 C   0  0  0  0  0  0  0  0  0  0  0  0
   -4.0589   -0.6524    0.8445 O   0  0  0  0  0  0  0  0  0  0  0  0
   -5.0689    0.9778   -0.5771 C   0  0  0  0  0  0  0  0  0  0  0  0
   -6.2712    0.2559   -1.2310 C   0  0  2  0  0  0  0  0  0  0  0  0
   -5.8854   -0.3891   -2.4905 N   0  0  0  0  0  0  0  0  0  0  0  0
   -7.4324    1.2310   -1.5098 C   0  0  0  0  0  0  0  0  0  0  0  0
   -8.0654    1.7495   -0.2406 C   0  0  0  0  0  0  0  0  0  0  0  0
   -7.7482    3.0348    0.2323 C   0  0  0  0  0  0  0  0  0  0  0  0
   -8.3156    3.5118    1.4179 C   0  0  0  0  0  0  0  0  0  0  0  0
   -8.0015    4.7526    1.8657 F   0  0  0  0  0  0  0  0  0  0  0  0
   -9.2030    2.7096    2.1416 C   0  0  0  0  0  0  0  0  0  0  0  0
   -9.7534    3.1709    3.2919 F   0  0  0  0  0  0  0  0  0  0  0  0
   -9.5225    1.4297    1.6805 C   0  0  0  0  0  0  0  0  0  0  0  0
   -8.9574    0.9470    0.4955 C   0  0  0  0  0  0  0  0  0  0  0  0
   -9.2804   -0.2994    0.0663 F   0  0  0  0  0  0  0  0  0  0  0  0
   -0.8086   -1.2905   -1.9781 C   0  0  0  0  0  0  0  0  0  0  0  0
    0.5542   -1.5540   -1.3290 C   0  0  1  0  0  0  0  0  0  0  0  0
    1.6419   -0.8015   -2.0451 C   0  0  0  0  0  0  0  0  0  0  0  0
    2.3174   -1.3764   -2.9399 O   0  0  0  0  0  0  0  0  0  0  0  0
    1.8725    0.5408   -1.7564 O   0  0  0  0  0  0  0  0  0  0  0  0
    1.7868   -4.6420    3.1981 H   0  0  0  0  0  0  0  0  0  0  0  0
    1.0585   -2.9997    3.1435 H   0  0  0  0  0  0  0  0  0  0  0  0
    2.8223   -3.2024    3.5086 H   0  0  0  0  0  0  0  0  0  0  0  0
    3.1363   -4.2032    1.1973 H   0  0  0  0  0  0  0  0  0  0  0  0
    1.4099   -3.9022    0.8436 H   0  0  0  0  0  0  0  0  0  0  0  0
    2.9045   -2.2084   -0.1605 H   0  0  0  0  0  0  0  0  0  0  0  0
    4.5285   -2.3100    1.7740 H   0  0  0  0  0  0  0  0  0  0  0  0
    3.6370    0.2520    0.5369 H   0  0  0  0  0  0  0  0  0  0  0  0
    6.2010   -0.1011    2.2141 H   0  0  0  0  0  0  0  0  0  0  0  0
    4.6629    0.4646    2.9121 H   0  0  0  0  0  0  0  0  0  0  0  0
    4.5458    2.3688    1.3130 H   0  0  0  0  0  0  0  0  0  0  0  0
    5.9794    2.4082    2.3695 H   0  0  0  0  0  0  0  0  0  0  0  0
    4.8788    2.5332   -1.0604 H   0  0  0  0  0  0  0  0  0  0  0  0
    6.3893    2.6315   -3.0093 H   0  0  0  0  0  0  0  0  0  0  0  0
    8.7959    2.0960   -2.7523 H   0  0  0  0  0  0  0  0  0  0  0  0
    9.6965    1.4661   -0.5304 H   0  0  0  0  0  0  0  0  0  0  0  0
    8.2024    1.3666    1.4339 H   0  0  0  0  0  0  0  0  0  0  0  0
    7.0662   -1.9141   -0.6932 H   0  0  0  0  0  0  0  0  0  0  0  0
   -1.2840   -1.1454    1.3072 H   0  0  0  0  0  0  0  0  0  0  0  0
   -0.9440    0.4376    0.4750 H   0  0  0  0  0  0  0  0  0  0  0  0
   -2.2299   -2.1233   -0.5804 H   0  0  0  0  0  0  0  0  0  0  0  0
   -2.8516    0.3587   -2.0073 H   0  0  0  0  0  0  0  0  0  0  0  0
   -5.3941    1.4836    0.3567 H   0  0  0  0  0  0  0  0  0  0  0  0
   -4.6769    1.7643   -1.2579 H   0  0  0  0  0  0  0  0  0  0  0  0
   -6.6370   -0.5320   -0.5342 H   0  0  0  0  0  0  0  0  0  0  0  0
   -5.3623    0.2918   -3.0885 H   0  0  0  0  0  0  0  0  0  0  0  0
   -5.2482   -1.1927   -2.2865 H   0  0  0  0  0  0  0  0  0  0  0  0
   -7.0704    2.0755   -2.1373 H   0  0  0  0  0  0  0  0  0  0  0  0
   -8.2120    0.7090   -2.1070 H   0  0  0  0  0  0  0  0  0  0  0  0
   -7.0568    3.6641   -0.3145 H   0  0  0  0  0  0  0  0  0  0  0  0
  -10.2089    0.8095    2.2428 H   0  0  0  0  0  0  0  0  0  0  0  0
   -0.7792   -0.3597   -2.5886 H   0  0  0  0  0  0  0  0  0  0  0  0
   -1.1097   -2.1355   -2.6350 H   0  0  0  0  0  0  0  0  0  0  0  0
    0.7683   -2.6457   -1.3392 H   0  0  0  0  0  0  0  0  0  0  0  0
    2.5981    1.0588   -2.2373 H   0  0  0  0  0  0  0  0  0  0  0  0
  1  2  1  0
  2  3  1  0
  3  4  1  0
  4  5  1  0
  5  6  1  0
  6  7  1  0
  7  8  1  0
  8  9  2  0
  9 10  1  0
 10 11  2  0
 11 12  1  0
 12 13  2  0
  5 14  1  0
 14 15  2  0
 14 16  1  0
  3 17  1  0
 17 18  2  0
 17 19  1  0
 19 20  1  0
 20 21  1  0
 21 22  1  0
 22 23  1  0
 23 24  2  0
 23 25  1  0
 25 26  1  0
 26 27  1  0
 26 28  1  0
 28 29  1  0
 29 30  2  0
 30 31  1  0
 31 32  1  0
 31 33  2  0
 33 34  1  0
 33 35  1  0
 35 36  2  0
 36 37  1  0
 21 38  1  0
 38 39  1  0
 39 40  1  0
 40 41  2  0
 40 42  1  0
 13  8  1  0
 39 19  1  0
 36 29  1  0
  1 43  1  0
  1 44  1  0
  1 45  1  0
  2 46  1  0
  2 47  1  0
  3 48  1  6
  4 49  1  0
  5 50  1  6
  6 51  1  0
  6 52  1  0
  7 53  1  0
  7 54  1  0
  9 55  1  0
 10 56  1  0
 11 57  1  0
 12 58  1  0
 13 59  1  0
 16 60  1  0
 20 61  1  0
 20 62  1  0
 21 63  1  1
 22 64  1  0
 25 65  1  0
 25 66  1  0
 26 67  1  1
 27 68  1  0
 27 69  1  0
 28 70  1  0
 28 71  1  0
 30 72  1  0
 35 73  1  0
 38 74  1  0
 38 75  1  0
 39 76  1  1
 42 77  1  0
M  END
$$$$
