
     RDKit          3D

 40 42  0  0  0  0  0  0  0  0999 V2000
   -5.4064    2.2069    0.4187 C   0  0  0  0  0  0  0  0  0  0  0  0
   -4.0624    1.5608    0.2571 C   0  0  0  0  0  0  0  0  0  0  0  0
   -3.8378    0.2646    0.7449 C   0  0  0  0  0  0  0  0  0  0  0  0
   -2.5966   -0.3521    0.5624 C   0  0  0  0  0  0  0  0  0  0  0  0
   -1.5732    0.3093   -0.1343 C   0  0  0  0  0  0  0  0  0  0  0  0
   -0.2508   -0.3230   -0.3139 C   0  0  0  0  0  0  0  0  0  0  0  0
    0.8266    0.3139    0.2132 N   0  0  0  0  0  0  0  0  0  0  0  0
    2.0814   -0.1928    0.1154 C   0  0  0  0  0  0  0  0  0  0  0  0
    3.2318    0.5337    0.7073 C   0  0  0  0  0  0  0  0  0  0  0  0
    3.0405    1.7633    1.3680 C   0  0  0  0  0  0  0  0  0  0  0  0
    4.1266    2.4459    1.9244 C   0  0  0  0  0  0  0  0  0  0  0  0
    5.4135    1.9126    1.8292 C   0  0  0  0  0  0  0  0  0  0  0  0
    5.6175    0.6950    1.1770 C   0  0  0  0  0  0  0  0  0  0  0  0
    4.5356    0.0074    0.6184 C   0  0  0  0  0  0  0  0  0  0  0  0
    2.2701   -1.3759   -0.5221 N   0  0  0  0  0  0  0  0  0  0  0  0
    1.2435   -2.0652   -1.0842 C   0  0  0  0  0  0  0  0  0  0  0  0
    1.5393   -3.3099   -1.7293 N   0  0  0  0  0  0  0  0  0  0  0  0
   -0.0700   -1.5383   -1.0208 C   0  0  0  0  0  0  0  0  0  0  0  0
   -1.2334   -2.2328   -1.7023 C   0  0  0  0  0  0  0  0  0  0  0  0
   -1.8036   -3.2505   -0.8248 N   0  0  0  0  0  0  0  0  0  0  0  0
   -1.7967    1.6067   -0.6182 C   0  0  0  0  0  0  0  0  0  0  0  0
   -3.0379    2.2235   -0.4357 C   0  0  0  0  0  0  0  0  0  0  0  0
   -6.0481    1.9452   -0.4484 H   0  0  0  0  0  0  0  0  0  0  0  0
   -5.8988    1.8592    1.3519 H   0  0  0  0  0  0  0  0  0  0  0  0
   -5.3060    3.3118    0.4750 H   0  0  0  0  0  0  0  0  0  0  0  0
   -4.6207   -0.2659    1.2728 H   0  0  0  0  0  0  0  0  0  0  0  0
   -2.4312   -1.3394    0.9737 H   0  0  0  0  0  0  0  0  0  0  0  0
    2.0535    2.1996    1.4558 H   0  0  0  0  0  0  0  0  0  0  0  0
    3.9698    3.3899    2.4301 H   0  0  0  0  0  0  0  0  0  0  0  0
    6.2525    2.4429    2.2608 H   0  0  0  0  0  0  0  0  0  0  0  0
    6.6157    0.2827    1.1038 H   0  0  0  0  0  0  0  0  0  0  0  0
    4.7221   -0.9345    0.1183 H   0  0  0  0  0  0  0  0  0  0  0  0
    2.5294   -3.6374   -1.7844 H   0  0  0  0  0  0  0  0  0  0  0  0
    0.8067   -3.9427   -2.1146 H   0  0  0  0  0  0  0  0  0  0  0  0
   -0.9206   -2.6836   -2.6681 H   0  0  0  0  0  0  0  0  0  0  0  0
   -2.0224   -1.4990   -1.9720 H   0  0  0  0  0  0  0  0  0  0  0  0
   -2.6353   -3.6594   -1.3088 H   0  0  0  0  0  0  0  0  0  0  0  0
   -1.1116   -4.0261   -0.7153 H   0  0  0  0  0  0  0  0  0  0  0  0
   -1.0138    2.1352   -1.1485 H   0  0  0  0  0  0  0  0  0  0  0  0
   -3.1990    3.2183   -0.8326 H   0  0  0  0  0  0  0  0  0  0  0  0
  1  2  1  0
  2  3  2  0
  3  4  1  0
  4  5  2  0
  5  6  1  0
  6  7  2  0
  7  8  1  0
  8  9  1  0
  9 10  2  0
 10 11  1  0
 11 12  2  0
 12 13  1  0
 13 14  2  0
  8 15  2  0
 15 16  1  0
 16 17  1  0
 16 18  2  0
 18 19  1  0
 19 20  1  0
  5 21  1  0
 21 22  2  0
 22  2  1  0
 18  6  1  0
 14  9  1  0
  1 23  1  0
  1 24  1  0
  1 25  1  0
  3 26  1  0
  4 27  1  0
 10 28  1  0
 11 29  1  0
 12 30  1  0
 13 31  1  0
 14 32  1  0
 17 33  1  0
 17 34  1  0
 19 35  1  0
 19 36  1  0
 20 37  1  0
 20 38  1  0
 21 39  1  0
 22 40  1  0
M  END
$$$$
