
     RDKit          3D

 43 45  0  0  0  0  0  0  0  0999 V2000
   -3.0440    2.9427   -0.3682 N   0  0  0  0  0  0  0  0  0  0  0  0
   -2.0689    2.1250   -1.0958 C   0  0  1  0  0  0  0  0  0  0  0  0
   -0.8030    1.8880   -0.2348 C   0  0  0  0  0  0  0  0  0  0  0  0
    0.3283    1.2370   -0.9982 C   0  0  0  0  0  0  0  0  0  0  0  0
    0.5003    1.5406   -2.2108 O   0  0  0  0  0  0  0  0  0  0  0  0
    1.2596    0.3415   -0.3502 N   0  0  0  0  0  0  0  0  0  0  0  0
    1.9885   -0.6616   -1.1519 C   0  0  0  0  0  0  0  0  0  0  0  0
    3.4683   -0.6987   -0.7514 C   0  0  0  0  0  0  0  0  0  0  0  0
    3.5791   -0.7229    0.7032 N   0  0  0  0  0  0  0  0  0  0  0  0
    2.6644   -0.2510    1.5602 C   0  0  0  0  0  0  0  0  0  0  0  0
    3.0921   -0.3237    2.8347 N   0  0  0  0  0  0  0  0  0  0  0  0
    4.3173   -0.8334    2.7948 N   0  0  0  0  0  0  0  0  0  0  0  0
    4.6122   -1.0612    1.4971 C   0  0  0  0  0  0  0  0  0  0  0  0
    5.9152   -1.6249    1.0193 C   0  0  0  0  0  0  0  0  0  0  0  0
    6.7936   -1.7611    2.0792 F   0  0  0  0  0  0  0  0  0  0  0  0
    6.4730   -0.7786    0.0793 F   0  0  0  0  0  0  0  0  0  0  0  0
    5.7009   -2.8657    0.4494 F   0  0  0  0  0  0  0  0  0  0  0  0
    1.3339    0.2749    1.1226 C   0  0  0  0  0  0  0  0  0  0  0  0
   -2.7286    0.8175   -1.5990 C   0  0  0  0  0  0  0  0  0  0  0  0
   -3.2412   -0.0794   -0.4906 C   0  0  0  0  0  0  0  0  0  0  0  0
   -4.5217    0.1277    0.0605 C   0  0  0  0  0  0  0  0  0  0  0  0
   -5.3274    1.1119   -0.4141 F   0  0  0  0  0  0  0  0  0  0  0  0
   -4.9822   -0.6854    1.1017 C   0  0  0  0  0  0  0  0  0  0  0  0
   -6.2134   -0.4755    1.6305 F   0  0  0  0  0  0  0  0  0  0  0  0
   -4.1778   -1.7149    1.5970 C   0  0  0  0  0  0  0  0  0  0  0  0
   -4.6275   -2.5006    2.6070 F   0  0  0  0  0  0  0  0  0  0  0  0
   -2.9143   -1.9411    1.0457 C   0  0  0  0  0  0  0  0  0  0  0  0
   -2.1403   -2.9492    1.5194 F   0  0  0  0  0  0  0  0  0  0  0  0
   -2.4473   -1.1339    0.0031 C   0  0  0  0  0  0  0  0  0  0  0  0
   -1.2288   -1.3926   -0.5331 F   0  0  0  0  0  0  0  0  0  0  0  0
   -3.1707    2.5621    0.5980 H   0  0  0  0  0  0  0  0  0  0  0  0
   -2.6563    3.9088   -0.2637 H   0  0  0  0  0  0  0  0  0  0  0  0
   -1.7671    2.6998   -2.0005 H   0  0  0  0  0  0  0  0  0  0  0  0
   -0.4333    2.8652    0.1431 H   0  0  0  0  0  0  0  0  0  0  0  0
   -1.0797    1.2763    0.6482 H   0  0  0  0  0  0  0  0  0  0  0  0
    1.9187   -0.4516   -2.2404 H   0  0  0  0  0  0  0  0  0  0  0  0
    1.5369   -1.6613   -0.9729 H   0  0  0  0  0  0  0  0  0  0  0  0
    3.9486   -1.6000   -1.1882 H   0  0  0  0  0  0  0  0  0  0  0  0
    3.9805    0.2076   -1.1401 H   0  0  0  0  0  0  0  0  0  0  0  0
    1.2099    1.2893    1.5585 H   0  0  0  0  0  0  0  0  0  0  0  0
    0.5327   -0.3916    1.5061 H   0  0  0  0  0  0  0  0  0  0  0  0
   -2.0084    0.2612   -2.2365 H   0  0  0  0  0  0  0  0  0  0  0  0
   -3.5717    1.0828   -2.2735 H   0  0  0  0  0  0  0  0  0  0  0  0
  1  2  1  0
  2  3  1  0
  3  4  1  0
  4  5  2  0
  4  6  1  0
  6  7  1  0
  7  8  1  0
  8  9  1  0
  9 10  1  0
 10 11  2  0
 11 12  1  0
 12 13  2  0
 13 14  1  0
 14 15  1  0
 14 16  1  0
 14 17  1  0
 10 18  1  0
  2 19  1  0
 19 20  1  0
 20 21  2  0
 21 22  1  0
 21 23  1  0
 23 24  1  0
 23 25  2  0
 25 26  1  0
 25 27  1  0
 27 28  1  0
 27 29  2  0
 29 30  1  0
 18  6  1  0
 29 20  1  0
 13  9  1  0
  1 31  1  0
  1 32  1  0
  2 33  1  6
  3 34  1  0
  3 35  1  0
  7 36  1  0
  7 37  1  0
  8 38  1  0
  8 39  1  0
 18 40  1  0
 18 41  1  0
 19 42  1  0
 19 43  1  0
M  END
$$$$
