
     RDKit          3D

 48 49  0  0  0  0  0  0  0  0999 V2000
    1.8414   -2.7260   -0.0441 C   0  0  0  0  0  0  0  0  0  0  0  0
    2.3678   -1.4206    0.5736 C   0  0  1  0  0  0  0  0  0  0  0  0
    3.4449   -0.8177   -0.3650 C   0  0  0  0  0  0  0  0  0  0  0  0
    3.6246    0.5959   -0.0812 N   0  0  0  0  0  0  0  0  0  0  0  0
    2.6269    1.4192    0.2334 C   0  0  0  0  0  0  0  0  0  0  0  0
    3.0121    2.7091    0.2046 N   0  0  0  0  0  0  0  0  0  0  0  0
    4.2935    2.7114   -0.1431 N   0  0  0  0  0  0  0  0  0  0  0  0
    4.6560    1.4243   -0.3301 C   0  0  0  0  0  0  0  0  0  0  0  0
    6.0083    0.9945   -0.8095 C   0  0  0  0  0  0  0  0  0  0  0  0
    5.8851    0.3390   -2.0203 F   0  0  0  0  0  0  0  0  0  0  0  0
    6.5798    0.1429    0.1173 F   0  0  0  0  0  0  0  0  0  0  0  0
    6.8288    2.0958   -0.9744 F   0  0  0  0  0  0  0  0  0  0  0  0
    1.2387    0.9276    0.4410 C   0  0  0  0  0  0  0  0  0  0  0  0
    1.2453   -0.4859    0.8722 N   0  0  0  0  0  0  0  0  0  0  0  0
    0.1762   -0.9385    1.7308 C   0  0  0  0  0  0  0  0  0  0  0  0
    0.4255   -1.7471    2.6662 O   0  0  0  0  0  0  0  0  0  0  0  0
   -1.2544   -0.5325    1.4887 C   0  0  0  0  0  0  0  0  0  0  0  0
   -1.9261   -1.4626    0.4597 C   0  0  2  0  0  0  0  0  0  0  0  0
   -1.2930   -1.3180   -0.8549 N   0  0  0  0  0  0  0  0  0  0  0  0
   -3.4600   -1.2538    0.3890 C   0  0  0  0  0  0  0  0  0  0  0  0
   -3.8720    0.1294   -0.0638 C   0  0  0  0  0  0  0  0  0  0  0  0
   -4.0305    1.1594    0.8802 C   0  0  0  0  0  0  0  0  0  0  0  0
   -4.3956    2.4454    0.4710 C   0  0  0  0  0  0  0  0  0  0  0  0
   -4.5399    3.4314    1.3907 F   0  0  0  0  0  0  0  0  0  0  0  0
   -4.6114    2.7140   -0.8835 C   0  0  0  0  0  0  0  0  0  0  0  0
   -4.9655    3.9609   -1.2818 F   0  0  0  0  0  0  0  0  0  0  0  0
   -4.4652    1.6958   -1.8291 C   0  0  0  0  0  0  0  0  0  0  0  0
   -4.0994    0.4073   -1.4259 C   0  0  0  0  0  0  0  0  0  0  0  0
   -3.9695   -0.5655   -2.3632 F   0  0  0  0  0  0  0  0  0  0  0  0
    0.6878    0.0000    0.0000 Cl  0  0  0  0  0  0  0  0  0  0  0  0
    1.1736   -3.2598    0.6627 H   0  0  0  0  0  0  0  0  0  0  0  0
    1.2767   -2.5118   -0.9761 H   0  0  0  0  0  0  0  0  0  0  0  0
    2.6874   -3.4048   -0.2850 H   0  0  0  0  0  0  0  0  0  0  0  0
    2.8700   -1.6729    1.5339 H   0  0  0  0  0  0  0  0  0  0  0  0
    4.4042   -1.3612   -0.2266 H   0  0  0  0  0  0  0  0  0  0  0  0
    3.1357   -0.9208   -1.4285 H   0  0  0  0  0  0  0  0  0  0  0  0
    0.6647    1.0261   -0.5039 H   0  0  0  0  0  0  0  0  0  0  0  0
    0.7721    1.5666    1.2218 H   0  0  0  0  0  0  0  0  0  0  0  0
   -1.3091    0.5199    1.1444 H   0  0  0  0  0  0  0  0  0  0  0  0
   -1.8057   -0.5892    2.4528 H   0  0  0  0  0  0  0  0  0  0  0  0
   -1.7652   -2.5105    0.8004 H   0  0  0  0  0  0  0  0  0  0  0  0
   -1.7547   -1.9694   -1.5303 H   0  0  0  0  0  0  0  0  0  0  0  0
   -1.4211   -0.3423   -1.2071 H   0  0  0  0  0  0  0  0  0  0  0  0
   -3.8984   -1.4587    1.3905 H   0  0  0  0  0  0  0  0  0  0  0  0
   -3.8988   -2.0173   -0.2895 H   0  0  0  0  0  0  0  0  0  0  0  0
   -3.8676    0.9661    1.9332 H   0  0  0  0  0  0  0  0  0  0  0  0
   -4.6363    1.9049   -2.8773 H   0  0  0  0  0  0  0  0  0  0  0  0
   -0.6878    0.0000    0.0000 H   0  0  0  0  0  0  0  0  0  0  0  0
  1  2  1  0
  2  3  1  0
  3  4  1  0
  4  5  1  0
  5  6  2  0
  6  7  1  0
  7  8  2  0
  8  9  1  0
  9 10  1  0
  9 11  1  0
  9 12  1  0
  5 13  1  0
 13 14  1  0
 14 15  1  0
 15 16  2  0
 15 17  1  0
 17 18  1  0
 18 19  1  0
 18 20  1  0
 20 21  1  0
 21 22  2  0
 22 23  1  0
 23 24  1  0
 23 25  2  0
 25 26  1  0
 25 27  1  0
 27 28  2  0
 28 29  1  0
 14  2  1  0
 28 21  1  0
  8  4  1  0
  1 31  1  0
  1 32  1  0
  1 33  1  0
  2 34  1  1
  3 35  1  0
  3 36  1  0
 13 37  1  0
 13 38  1  0
 17 39  1  0
 17 40  1  0
 18 41  1  1
 19 42  1  0
 19 43  1  0
 20 44  1  0
 20 45  1  0
 22 46  1  0
 27 47  1  0
 30 48  1  0
M  END
$$$$
