
     RDKit          3D

 54 56  0  0  0  0  0  0  0  0999 V2000
   -4.5112    0.1245    5.5518 C   0  0  0  0  0  0  0  0  0  0  0  0
   -3.5498    0.8901    4.8326 O   0  0  0  0  0  0  0  0  0  0  0  0
   -2.9264    0.4732    3.6455 C   0  0  0  0  0  0  0  0  0  0  0  0
   -3.2105   -0.7698    3.0490 C   0  0  0  0  0  0  0  0  0  0  0  0
   -2.5598   -1.1579    1.8698 C   0  0  0  0  0  0  0  0  0  0  0  0
   -1.6301   -0.2995    1.2671 C   0  0  0  0  0  0  0  0  0  0  0  0
   -1.3589    0.9465    1.8503 C   0  0  0  0  0  0  0  0  0  0  0  0
   -1.9968    1.3346    3.0439 C   0  0  0  0  0  0  0  0  0  0  0  0
   -1.7376    2.5698    3.6594 O   0  0  0  0  0  0  0  0  0  0  0  0
   -0.8217    3.5417    3.1652 C   0  0  0  0  0  0  0  0  0  0  0  0
   -0.9806   -0.6696   -0.0453 C   0  0  0  0  0  0  0  0  0  0  0  0
   -0.9419   -2.1265   -0.2962 N   0  0  0  0  0  0  0  0  0  0  0  0
   -0.1423   -2.6605   -1.3817 C   0  0  0  0  0  0  0  0  0  0  0  0
    0.0070   -3.9085   -1.4934 O   0  0  0  0  0  0  0  0  0  0  0  0
    0.5477   -1.7788   -2.3950 C   0  0  0  0  0  0  0  0  0  0  0  0
    2.0753   -1.7620   -2.1939 C   0  0  2  0  0  0  0  0  0  0  0  0
    2.4376   -1.1539   -0.9111 N   0  0  0  0  0  0  0  0  0  0  0  0
    2.7569   -1.0378   -3.3336 C   0  0  0  0  0  0  0  0  0  0  0  0
    3.1643   -1.7092   -4.3197 O   0  0  0  0  0  0  0  0  0  0  0  0
    3.0026    0.3803   -3.3041 N   0  0  0  0  0  0  0  0  0  0  0  0
    4.2909    0.9348   -3.6753 C   0  0  0  0  0  0  0  0  0  0  0  0
    4.2842    2.3669   -3.1616 C   0  0  0  0  0  0  0  0  0  0  0  0
    2.8185    2.7244   -2.9221 C   0  0  0  0  0  0  0  0  0  0  0  0
    2.0618    1.3933   -2.8442 C   0  0  1  0  0  0  0  0  0  0  0  0
    0.8722    1.4194   -3.7115 C   0  0  0  0  0  0  0  0  0  0  0  0
   -0.0630    1.4393   -4.3929 N   0  0  0  0  0  0  0  0  0  0  0  0
   -1.6193   -3.0725    0.6100 C   0  0  0  0  0  0  0  0  0  0  0  0
   -2.8843   -2.4635    1.2116 C   0  0  0  0  0  0  0  0  0  0  0  0
   -4.0641   -0.8368    5.8824 H   0  0  0  0  0  0  0  0  0  0  0  0
   -5.4014   -0.0656    4.9156 H   0  0  0  0  0  0  0  0  0  0  0  0
   -4.8308    0.6941    6.4483 H   0  0  0  0  0  0  0  0  0  0  0  0
   -3.9351   -1.4386    3.4939 H   0  0  0  0  0  0  0  0  0  0  0  0
   -0.6534    1.6085    1.3659 H   0  0  0  0  0  0  0  0  0  0  0  0
   -1.1358    3.8846    2.1568 H   0  0  0  0  0  0  0  0  0  0  0  0
    0.2026    3.1147    3.1230 H   0  0  0  0  0  0  0  0  0  0  0  0
   -0.8145    4.4140    3.8503 H   0  0  0  0  0  0  0  0  0  0  0  0
   -1.5473   -0.1743   -0.8622 H   0  0  0  0  0  0  0  0  0  0  0  0
    0.0559   -0.2719   -0.0408 H   0  0  0  0  0  0  0  0  0  0  0  0
    0.3216   -2.1828   -3.4062 H   0  0  0  0  0  0  0  0  0  0  0  0
    0.1417   -0.7529   -2.3742 H   0  0  0  0  0  0  0  0  0  0  0  0
    2.4398   -2.8158   -2.1995 H   0  0  0  0  0  0  0  0  0  0  0  0
    2.1081   -1.7792   -0.1404 H   0  0  0  0  0  0  0  0  0  0  0  0
    3.4811   -1.1403   -0.8341 H   0  0  0  0  0  0  0  0  0  0  0  0
    4.4005    0.9133   -4.7812 H   0  0  0  0  0  0  0  0  0  0  0  0
    5.1150    0.3574   -3.2018 H   0  0  0  0  0  0  0  0  0  0  0  0
    4.8398    2.4191   -2.1993 H   0  0  0  0  0  0  0  0  0  0  0  0
    4.7573    3.0589   -3.8920 H   0  0  0  0  0  0  0  0  0  0  0  0
    2.4615    3.3586   -3.7656 H   0  0  0  0  0  0  0  0  0  0  0  0
    2.7037    3.3011   -1.9783 H   0  0  0  0  0  0  0  0  0  0  0  0
    1.7569    1.1922   -1.7960 H   0  0  0  0  0  0  0  0  0  0  0  0
   -1.9213   -3.9915    0.0620 H   0  0  0  0  0  0  0  0  0  0  0  0
   -0.9180   -3.3667    1.4210 H   0  0  0  0  0  0  0  0  0  0  0  0
   -3.3155   -3.1804    1.9442 H   0  0  0  0  0  0  0  0  0  0  0  0
   -3.6330   -2.2882    0.4091 H   0  0  0  0  0  0  0  0  0  0  0  0
  1  2  1  0
  2  3  1  0
  3  4  2  0
  4  5  1  0
  5  6  2  0
  6  7  1  0
  7  8  2  0
  8  9  1  0
  9 10  1  0
  6 11  1  0
 11 12  1  0
 12 13  1  0
 13 14  2  0
 13 15  1  0
 15 16  1  0
 16 17  1  0
 16 18  1  0
 18 19  2  0
 18 20  1  0
 20 21  1  0
 21 22  1  0
 22 23  1  0
 23 24  1  0
 24 25  1  0
 25 26  3  0
 12 27  1  0
 27 28  1  0
  8  3  1  0
 24 20  1  0
 28  5  1  0
  1 29  1  0
  1 30  1  0
  1 31  1  0
  4 32  1  0
  7 33  1  0
 10 34  1  0
 10 35  1  0
 10 36  1  0
 11 37  1  0
 11 38  1  0
 15 39  1  0
 15 40  1  0
 16 41  1  1
 17 42  1  0
 17 43  1  0
 21 44  1  0
 21 45  1  0
 22 46  1  0
 22 47  1  0
 23 48  1  0
 23 49  1  0
 24 50  1  1
 27 51  1  0
 27 52  1  0
 28 53  1  0
 28 54  1  0
M  END
$$$$
