
     RDKit          3D

 43 45  0  0  0  0  0  0  0  0999 V2000
    4.8012   -2.0197    3.0896 C   0  0  0  0  0  0  0  0  0  0  0  0
    3.7154   -1.6509    2.2454 O   0  0  0  0  0  0  0  0  0  0  0  0
    3.7769   -0.6470    1.2671 C   0  0  0  0  0  0  0  0  0  0  0  0
    4.9448    0.0986    1.0275 C   0  0  0  0  0  0  0  0  0  0  0  0
    4.9649    1.0749    0.0310 C   0  0  0  0  0  0  0  0  0  0  0  0
    3.8214    1.3295   -0.7312 C   0  0  0  0  0  0  0  0  0  0  0  0
    3.8696    2.2646   -1.7159 N   0  0  0  0  0  0  0  0  0  0  0  0
    2.7940    2.5416   -2.4942 C   0  0  0  0  0  0  0  0  0  0  0  0
    1.5899    1.8699   -2.2915 C   0  0  0  0  0  0  0  0  0  0  0  0
    1.4836    0.9051   -1.2778 C   0  0  0  0  0  0  0  0  0  0  0  0
    0.1662    0.2661   -1.0579 C   0  0  0  0  0  0  0  0  0  0  0  0
   -0.3034    0.1855    0.1098 O   0  0  0  0  0  0  0  0  0  0  0  0
   -0.5973   -0.2180   -2.1732 N   0  0  0  0  0  0  0  0  0  0  0  0
   -1.9416   -0.7678   -2.0195 C   0  0  0  0  0  0  0  0  0  0  0  0
   -2.9117    0.3315   -1.6827 C   0  0  0  0  0  0  0  0  0  0  0  0
   -3.0872    1.2536   -2.5246 O   0  0  0  0  0  0  0  0  0  0  0  0
   -3.6110    0.3813   -0.4227 N   0  0  0  0  0  0  0  0  0  0  0  0
   -4.2067    1.6099    0.0757 C   0  0  0  0  0  0  0  0  0  0  0  0
   -4.5216    1.3463    1.5431 C   0  0  0  0  0  0  0  0  0  0  0  0
   -5.7310    1.9178    1.9018 F   0  0  0  0  0  0  0  0  0  0  0  0
   -3.5136    1.8626    2.3416 F   0  0  0  0  0  0  0  0  0  0  0  0
   -4.5668   -0.1735    1.6870 C   0  0  0  0  0  0  0  0  0  0  0  0
   -3.7304   -0.7200    0.5263 C   0  0  1  0  0  0  0  0  0  0  0  0
   -4.3912   -1.8794   -0.0978 C   0  0  0  0  0  0  0  0  0  0  0  0
   -4.9095   -2.7900   -0.5890 N   0  0  0  0  0  0  0  0  0  0  0  0
    2.6248    0.6103   -0.4871 C   0  0  0  0  0  0  0  0  0  0  0  0
    2.6288   -0.3912    0.5071 C   0  0  0  0  0  0  0  0  0  0  0  0
    5.6537   -2.3839    2.4781 H   0  0  0  0  0  0  0  0  0  0  0  0
    5.1163   -1.1524    3.7074 H   0  0  0  0  0  0  0  0  0  0  0  0
    4.4741   -2.8366    3.7649 H   0  0  0  0  0  0  0  0  0  0  0  0
    5.8461   -0.0761    1.5989 H   0  0  0  0  0  0  0  0  0  0  0  0
    5.8764    1.6308   -0.1524 H   0  0  0  0  0  0  0  0  0  0  0  0
    2.8712    3.2933   -3.2683 H   0  0  0  0  0  0  0  0  0  0  0  0
    0.7355    2.1235   -2.9075 H   0  0  0  0  0  0  0  0  0  0  0  0
   -0.1711   -0.2082   -3.1274 H   0  0  0  0  0  0  0  0  0  0  0  0
   -2.2590   -1.2344   -2.9767 H   0  0  0  0  0  0  0  0  0  0  0  0
   -1.9229   -1.5695   -1.2552 H   0  0  0  0  0  0  0  0  0  0  0  0
   -5.1340    1.8280   -0.4974 H   0  0  0  0  0  0  0  0  0  0  0  0
   -3.4956    2.4588   -0.0266 H   0  0  0  0  0  0  0  0  0  0  0  0
   -4.1553   -0.5003    2.6670 H   0  0  0  0  0  0  0  0  0  0  0  0
   -5.6263   -0.5116    1.6192 H   0  0  0  0  0  0  0  0  0  0  0  0
   -2.7233   -1.0117    0.8939 H   0  0  0  0  0  0  0  0  0  0  0  0
    1.7557   -1.0000    0.6942 H   0  0  0  0  0  0  0  0  0  0  0  0
  1  2  1  0
  2  3  1  0
  3  4  2  0
  4  5  1  0
  5  6  2  0
  6  7  1  0
  7  8  2  0
  8  9  1  0
  9 10  2  0
 10 11  1  0
 11 12  2  0
 11 13  1  0
 13 14  1  0
 14 15  1  0
 15 16  2  0
 15 17  1  0
 17 18  1  0
 18 19  1  0
 19 20  1  0
 19 21  1  0
 19 22  1  0
 22 23  1  0
 23 24  1  0
 24 25  3  0
 10 26  1  0
 26 27  2  0
 27  3  1  0
 26  6  1  0
 23 17  1  0
  1 28  1  0
  1 29  1  0
  1 30  1  0
  4 31  1  0
  5 32  1  0
  8 33  1  0
  9 34  1  0
 13 35  1  0
 14 36  1  0
 14 37  1  0
 18 38  1  0
 18 39  1  0
 22 40  1  0
 22 41  1  0
 23 42  1  1
 27 43  1  0
M  END
$$$$
