
     RDKit          3D

 41 43  0  0  0  0  0  0  0  0999 V2000
   -5.6481    2.1156    1.0623 N   0  0  0  0  0  0  0  0  0  0  0  0
   -5.0807    1.4767    0.2818 C   0  0  0  0  0  0  0  0  0  0  0  0
   -4.3577    0.6640   -0.7113 C   0  0  2  0  0  0  0  0  0  0  0  0
   -5.1297   -0.6151   -1.0439 C   0  0  0  0  0  0  0  0  0  0  0  0
   -4.0892   -1.7312   -1.0738 C   0  0  0  0  0  0  0  0  0  0  0  0
   -2.9053   -1.2210   -0.2637 C   0  0  0  0  0  0  0  0  0  0  0  0
   -3.0748    0.2211   -0.1824 N   0  0  0  0  0  0  0  0  0  0  0  0
   -2.0276    1.1219    0.2278 C   0  0  0  0  0  0  0  0  0  0  0  0
   -2.1701    2.3635    0.0539 O   0  0  0  0  0  0  0  0  0  0  0  0
   -0.7503    0.5925    0.8238 C   0  0  0  0  0  0  0  0  0  0  0  0
    0.0224    1.6672    1.4541 N   0  0  0  0  0  0  0  0  0  0  0  0
    1.3527    0.9880    2.3458 S   0  0  0  0  0  0  0  0  0  0  0  0
    0.8071    0.2651    3.5464 O   0  0  0  0  0  0  0  0  0  0  0  0
    2.2471    2.0900    2.8405 O   0  0  0  0  0  0  0  0  0  0  0  0
    2.2877   -0.1374    1.3353 C   0  0  0  0  0  0  0  0  0  0  0  0
    2.1865   -1.5103    1.6150 C   0  0  0  0  0  0  0  0  0  0  0  0
    2.8759   -2.4507    0.8522 C   0  0  0  0  0  0  0  0  0  0  0  0
    3.6773   -2.0423   -0.2098 C   0  0  0  0  0  0  0  0  0  0  0  0
    3.7944   -0.6820   -0.5234 C   0  0  0  0  0  0  0  0  0  0  0  0
    4.5988   -0.2832   -1.6027 C   0  0  0  0  0  0  0  0  0  0  0  0
    4.7187    1.0668   -1.9298 C   0  0  0  0  0  0  0  0  0  0  0  0
    4.0390    2.0292   -1.1855 C   0  0  0  0  0  0  0  0  0  0  0  0
    3.2353    1.6506   -0.1074 C   0  0  0  0  0  0  0  0  0  0  0  0
    3.0972    0.2908    0.2468 C   0  0  0  0  0  0  0  0  0  0  0  0
   -4.1921    1.2631   -1.6331 H   0  0  0  0  0  0  0  0  0  0  0  0
   -5.6479   -0.5267   -2.0237 H   0  0  0  0  0  0  0  0  0  0  0  0
   -5.8855   -0.8537   -0.2611 H   0  0  0  0  0  0  0  0  0  0  0  0
   -4.4936   -2.6754   -0.6485 H   0  0  0  0  0  0  0  0  0  0  0  0
   -3.7714   -1.9119   -2.1245 H   0  0  0  0  0  0  0  0  0  0  0  0
   -1.9526   -1.4771   -0.7762 H   0  0  0  0  0  0  0  0  0  0  0  0
   -2.9152   -1.6555    0.7592 H   0  0  0  0  0  0  0  0  0  0  0  0
   -0.1540    0.1136    0.0163 H   0  0  0  0  0  0  0  0  0  0  0  0
   -1.0135   -0.1761    1.5825 H   0  0  0  0  0  0  0  0  0  0  0  0
    0.4249    2.2656    0.6975 H   0  0  0  0  0  0  0  0  0  0  0  0
    1.5644   -1.8633    2.4268 H   0  0  0  0  0  0  0  0  0  0  0  0
    2.7855   -3.5040    1.0846 H   0  0  0  0  0  0  0  0  0  0  0  0
    4.2032   -2.7914   -0.7901 H   0  0  0  0  0  0  0  0  0  0  0  0
    5.1337   -1.0168   -2.1945 H   0  0  0  0  0  0  0  0  0  0  0  0
    5.3397    1.3679   -2.7636 H   0  0  0  0  0  0  0  0  0  0  0  0
    4.1351    3.0758   -1.4448 H   0  0  0  0  0  0  0  0  0  0  0  0
    2.7328    2.4362    0.4332 H   0  0  0  0  0  0  0  0  0  0  0  0
  1  2  3  0
  2  3  1  0
  3  4  1  0
  4  5  1  0
  5  6  1  0
  6  7  1  0
  7  8  1  0
  8  9  2  0
  8 10  1  0
 10 11  1  0
 11 12  1  0
 12 13  2  0
 12 14  2  0
 12 15  1  0
 15 16  2  0
 16 17  1  0
 17 18  2  0
 18 19  1  0
 19 20  2  0
 20 21  1  0
 21 22  2  0
 22 23  1  0
 23 24  2  0
  7  3  1  0
 24 15  1  0
 24 19  1  0
  3 25  1  6
  4 26  1  0
  4 27  1  0
  5 28  1  0
  5 29  1  0
  6 30  1  0
  6 31  1  0
 10 32  1  0
 10 33  1  0
 11 34  1  0
 16 35  1  0
 17 36  1  0
 18 37  1  0
 20 38  1  0
 21 39  1  0
 22 40  1  0
 23 41  1  0
M  END
$$$$
