
     RDKit          3D

 51 54  0  0  0  0  0  0  0  0999 V2000
    2.0398   -2.2229   -2.1665 N   0  0  0  0  0  0  0  0  0  0  0  0
    1.9275   -1.5109   -0.8886 C   0  0  2  0  0  0  0  0  0  0  0  0
    0.6843   -1.9639   -0.1515 C   0  0  0  0  0  0  0  0  0  0  0  0
   -0.3869   -2.1261   -0.7977 O   0  0  0  0  0  0  0  0  0  0  0  0
    0.6813   -2.1529    1.2762 N   0  0  0  0  0  0  0  0  0  0  0  0
    1.8173   -2.6623    2.0295 C   0  0  0  0  0  0  0  0  0  0  0  0
    1.3210   -2.8417    3.4599 C   0  0  0  0  0  0  0  0  0  0  0  0
   -0.2024   -2.7795    3.3831 C   0  0  0  0  0  0  0  0  0  0  0  0
   -0.5191   -2.0239    2.0897 C   0  0  1  0  0  0  0  0  0  0  0  0
   -0.8020   -0.5578    2.3329 C   0  0  0  0  0  0  0  0  0  0  0  0
   -0.1801    0.0600    3.2399 O   0  0  0  0  0  0  0  0  0  0  0  0
   -1.7119    0.1936    1.4543 C   0  0  0  0  0  0  0  0  0  0  0  0
   -2.4249   -0.3744    0.4498 N   0  0  0  0  0  0  0  0  0  0  0  0
   -3.1227    0.5599   -0.2440 C   0  0  0  0  0  0  0  0  0  0  0  0
   -3.9345    0.2816   -1.3445 C   0  0  0  0  0  0  0  0  0  0  0  0
   -4.5896    1.3469   -1.9864 C   0  0  0  0  0  0  0  0  0  0  0  0
   -4.4252    2.6685   -1.5247 C   0  0  0  0  0  0  0  0  0  0  0  0
   -3.6047    2.9362   -0.4173 C   0  0  0  0  0  0  0  0  0  0  0  0
   -2.9690    1.8629    0.2010 C   0  0  0  0  0  0  0  0  0  0  0  0
   -1.9271    1.8748    1.5146 S   0  0  0  0  0  0  0  0  0  0  0  0
    1.9821    0.0385   -1.0789 C   0  0  0  0  0  0  0  0  0  0  0  0
    2.3573    0.7550    0.2469 C   0  0  0  0  0  0  0  0  0  0  0  0
    1.9664    2.2473    0.2797 C   0  0  0  0  0  0  0  0  0  0  0  0
    1.9059    2.8571   -1.1230 C   0  0  0  0  0  0  0  0  0  0  0  0
    0.8635    2.1454   -2.0067 C   0  0  0  0  0  0  0  0  0  0  0  0
    0.6907    0.6492   -1.6729 C   0  0  0  0  0  0  0  0  0  0  0  0
    2.9544   -1.9799   -2.6122 H   0  0  0  0  0  0  0  0  0  0  0  0
    1.2832   -1.9228   -2.8210 H   0  0  0  0  0  0  0  0  0  0  0  0
    2.8176   -1.8041   -0.2932 H   0  0  0  0  0  0  0  0  0  0  0  0
    2.1392   -3.6384    1.6059 H   0  0  0  0  0  0  0  0  0  0  0  0
    2.6609   -1.9401    2.0066 H   0  0  0  0  0  0  0  0  0  0  0  0
    1.6939   -2.0070    4.0934 H   0  0  0  0  0  0  0  0  0  0  0  0
    1.6646   -3.8072    3.8906 H   0  0  0  0  0  0  0  0  0  0  0  0
   -0.6007   -3.8156    3.3073 H   0  0  0  0  0  0  0  0  0  0  0  0
   -0.6411   -2.3035    4.2876 H   0  0  0  0  0  0  0  0  0  0  0  0
   -1.3846   -2.5143    1.5919 H   0  0  0  0  0  0  0  0  0  0  0  0
   -4.0555   -0.7334   -1.7008 H   0  0  0  0  0  0  0  0  0  0  0  0
   -5.2226    1.1511   -2.8421 H   0  0  0  0  0  0  0  0  0  0  0  0
   -4.9325    3.4816   -2.0275 H   0  0  0  0  0  0  0  0  0  0  0  0
   -3.4683    3.9478   -0.0579 H   0  0  0  0  0  0  0  0  0  0  0  0
    2.8036    0.2486   -1.8011 H   0  0  0  0  0  0  0  0  0  0  0  0
    1.8662    0.2619    1.1108 H   0  0  0  0  0  0  0  0  0  0  0  0
    3.4548    0.6620    0.4008 H   0  0  0  0  0  0  0  0  0  0  0  0
    0.9704    2.3588    0.7606 H   0  0  0  0  0  0  0  0  0  0  0  0
    2.6989    2.8096    0.8981 H   0  0  0  0  0  0  0  0  0  0  0  0
    1.6531    3.9368   -1.0488 H   0  0  0  0  0  0  0  0  0  0  0  0
    2.9104    2.7795   -1.5944 H   0  0  0  0  0  0  0  0  0  0  0  0
    1.1693    2.2534   -3.0702 H   0  0  0  0  0  0  0  0  0  0  0  0
   -0.1210    2.6505   -1.8938 H   0  0  0  0  0  0  0  0  0  0  0  0
   -0.1337    0.5477   -0.9371 H   0  0  0  0  0  0  0  0  0  0  0  0
    0.3821    0.1165   -2.5955 H   0  0  0  0  0  0  0  0  0  0  0  0
  1  2  1  0
  2  3  1  0
  3  4  2  0
  3  5  1  0
  5  6  1  0
  6  7  1  0
  7  8  1  0
  8  9  1  0
  9 10  1  0
 10 11  2  0
 10 12  1  0
 12 13  2  0
 13 14  1  0
 14 15  2  0
 15 16  1  0
 16 17  2  0
 17 18  1  0
 18 19  2  0
 19 20  1  0
  2 21  1  0
 21 22  1  0
 22 23  1  0
 23 24  1  0
 24 25  1  0
 25 26  1  0
  9  5  1  0
 20 12  1  0
 26 21  1  0
 19 14  1  0
  1 27  1  0
  1 28  1  0
  2 29  1  1
  6 30  1  0
  6 31  1  0
  7 32  1  0
  7 33  1  0
  8 34  1  0
  8 35  1  0
  9 36  1  6
 15 37  1  0
 16 38  1  0
 17 39  1  0
 18 40  1  0
 21 41  1  0
 22 42  1  0
 22 43  1  0
 23 44  1  0
 23 45  1  0
 24 46  1  0
 24 47  1  0
 25 48  1  0
 25 49  1  0
 26 50  1  0
 26 51  1  0
M  END
$$$$
