
     RDKit          3D

 20 19  0  0  0  0  0  0  0  0999 V2000
   -1.2826   -0.5296   -1.7277 C   0  0  0  0  0  0  0  0  0  0  0  0
   -1.3275    0.3851   -0.5825 N   0  0  0  0  0  0  0  0  0  0  0  0
   -2.3966    1.3851   -0.4819 C   0  0  0  0  0  0  0  0  0  0  0  0
   -0.2967    0.3321    0.4276 C   0  0  0  0  0  0  0  0  0  0  0  0
   -0.3026    1.1950    1.3978 N   0  0  0  0  0  0  0  0  0  0  0  0
    0.6974   -0.7087    0.3959 N   0  0  0  0  0  0  0  0  0  0  0  0
    2.0702   -0.5248    0.7811 C   0  0  0  0  0  0  0  0  0  0  0  0
    2.6433    0.6353    0.6936 N   0  0  0  0  0  0  0  0  0  0  0  0
    2.8396   -1.6523    1.1979 N   0  0  0  0  0  0  0  0  0  0  0  0
   -2.0601   -0.2839   -2.4810 H   0  0  0  0  0  0  0  0  0  0  0  0
   -0.2923   -0.4613   -2.2257 H   0  0  0  0  0  0  0  0  0  0  0  0
   -1.4539   -1.5710   -1.3838 H   0  0  0  0  0  0  0  0  0  0  0  0
   -2.9502    1.2464    0.4708 H   0  0  0  0  0  0  0  0  0  0  0  0
   -3.1233    1.2980   -1.3167 H   0  0  0  0  0  0  0  0  0  0  0  0
   -1.9590    2.4055   -0.5061 H   0  0  0  0  0  0  0  0  0  0  0  0
    0.3984    1.1717    2.1713 H   0  0  0  0  0  0  0  0  0  0  0  0
    0.4018   -1.6670    0.1057 H   0  0  0  0  0  0  0  0  0  0  0  0
    2.1455    1.4864    0.3510 H   0  0  0  0  0  0  0  0  0  0  0  0
    3.8460   -1.5433    1.4548 H   0  0  0  0  0  0  0  0  0  0  0  0
    2.4024   -2.5984    1.2579 H   0  0  0  0  0  0  0  0  0  0  0  0
  1  2  1  0
  2  3  1  0
  2  4  1  0
  4  5  2  3
  4  6  1  0
  6  7  1  0
  7  8  2  3
  7  9  1  0
  1 10  1  0
  1 11  1  0
  1 12  1  0
  3 13  1  0
  3 14  1  0
  3 15  1  0
  5 16  1  0
  6 17  1  0
  8 18  1  0
  9 19  1  0
  9 20  1  0
M  END
$$$$
