
     RDKit          3D

 55 56  0  0  0  0  0  0  0  0999 V2000
    9.0304    0.0632   -1.3211 C   0  0  0  0  0  0  0  0  0  0  0  0
    7.8337    0.1426   -0.4340 C   0  0  0  0  0  0  0  0  0  0  0  0
    7.7997   -0.2288    0.9093 C   0  0  0  0  0  0  0  0  0  0  0  0
    6.4817   -0.0325    1.2422 C   0  0  0  0  0  0  0  0  0  0  0  0
    5.8830   -0.2284    2.4399 N   0  0  0  0  0  0  0  0  0  0  0  0
    4.5480    0.0299    2.5566 C   0  0  0  0  0  0  0  0  0  0  0  0
    3.7963    0.4861    1.4443 C   0  0  0  0  0  0  0  0  0  0  0  0
    2.3480    0.7683    1.5826 C   0  0  0  0  0  0  0  0  0  0  0  0
    1.8735    1.0003    2.7283 O   0  0  0  0  0  0  0  0  0  0  0  0
    1.4761    0.7583    0.4388 N   0  0  0  0  0  0  0  0  0  0  0  0
    0.0604    1.1298    0.5153 C   0  0  0  0  0  0  0  0  0  0  0  0
   -0.8763   -0.1156    0.4865 C   0  0  0  0  0  0  0  0  0  0  0  0
   -0.7420   -0.8684   -0.8585 C   0  0  0  0  0  0  0  0  0  0  0  0
   -0.4802   -1.0936    1.6153 C   0  0  0  0  0  0  0  0  0  0  0  0
   -2.2912    0.2722    0.7210 N   0  0  0  0  0  0  0  0  0  0  0  0
   -2.8426    1.2626   -0.2176 C   0  0  0  0  0  0  0  0  0  0  0  0
   -4.3300    1.3523   -0.0329 C   0  0  0  0  0  0  0  0  0  0  0  0
   -4.8124    2.3647    0.5438 O   0  0  0  0  0  0  0  0  0  0  0  0
   -5.2052    0.2958   -0.4728 N   0  0  0  0  0  0  0  0  0  0  0  0
   -4.7531   -0.8958   -1.1745 C   0  0  0  0  0  0  0  0  0  0  0  0
   -6.0016   -1.7367   -1.4076 C   0  0  0  0  0  0  0  0  0  0  0  0
   -7.1823   -0.7901   -1.2089 C   0  0  0  0  0  0  0  0  0  0  0  0
   -6.6538    0.3541   -0.3439 C   0  0  1  0  0  0  0  0  0  0  0  0
   -7.0390    0.1762    1.0659 C   0  0  0  0  0  0  0  0  0  0  0  0
   -7.3410    0.0366    2.1743 N   0  0  0  0  0  0  0  0  0  0  0  0
    4.4752    0.6791    0.2231 C   0  0  0  0  0  0  0  0  0  0  0  0
    5.8006    0.4055    0.1800 N   0  0  0  0  0  0  0  0  0  0  0  0
    6.6034    0.5161   -0.8635 N   0  0  0  0  0  0  0  0  0  0  0  0
    0.6878    0.0000    0.0000 Cl  0  0  0  0  0  0  0  0  0  0  0  0
    9.9461    0.3231   -0.7494 H   0  0  0  0  0  0  0  0  0  0  0  0
    8.9229    0.7732   -2.1678 H   0  0  0  0  0  0  0  0  0  0  0  0
    9.1275   -0.9680   -1.7196 H   0  0  0  0  0  0  0  0  0  0  0  0
    8.6076   -0.5883    1.5330 H   0  0  0  0  0  0  0  0  0  0  0  0
    4.0681   -0.1298    3.5135 H   0  0  0  0  0  0  0  0  0  0  0  0
    1.8289    0.3944   -0.4735 H   0  0  0  0  0  0  0  0  0  0  0  0
   -0.1597    1.7915   -0.3488 H   0  0  0  0  0  0  0  0  0  0  0  0
   -0.1356    1.7285    1.4313 H   0  0  0  0  0  0  0  0  0  0  0  0
   -1.5438   -1.6307   -0.9565 H   0  0  0  0  0  0  0  0  0  0  0  0
    0.2359   -1.3913   -0.9281 H   0  0  0  0  0  0  0  0  0  0  0  0
   -0.8000   -0.1759   -1.7233 H   0  0  0  0  0  0  0  0  0  0  0  0
   -1.1905   -1.9479    1.6490 H   0  0  0  0  0  0  0  0  0  0  0  0
    0.5409   -1.5039    1.4626 H   0  0  0  0  0  0  0  0  0  0  0  0
   -0.5077   -0.5833    2.6020 H   0  0  0  0  0  0  0  0  0  0  0  0
   -2.3805    0.6721    1.6861 H   0  0  0  0  0  0  0  0  0  0  0  0
   -2.3952    2.2638   -0.0315 H   0  0  0  0  0  0  0  0  0  0  0  0
   -2.6426    0.9858   -1.2707 H   0  0  0  0  0  0  0  0  0  0  0  0
   -4.0206   -1.4570   -0.5564 H   0  0  0  0  0  0  0  0  0  0  0  0
   -4.2948   -0.6092   -2.1457 H   0  0  0  0  0  0  0  0  0  0  0  0
   -6.0501   -2.5505   -0.6508 H   0  0  0  0  0  0  0  0  0  0  0  0
   -6.0069   -2.1834   -2.4256 H   0  0  0  0  0  0  0  0  0  0  0  0
   -8.0533   -1.3166   -0.7583 H   0  0  0  0  0  0  0  0  0  0  0  0
   -7.4911   -0.3857   -2.1983 H   0  0  0  0  0  0  0  0  0  0  0  0
   -7.0394    1.3281   -0.7166 H   0  0  0  0  0  0  0  0  0  0  0  0
    3.9747    1.0574   -0.6582 H   0  0  0  0  0  0  0  0  0  0  0  0
   -0.6878    0.0000    0.0000 H   0  0  0  0  0  0  0  0  0  0  0  0
  1  2  1  0
  2  3  1  0
  3  4  2  0
  4  5  1  0
  5  6  2  0
  6  7  1  0
  7  8  1  0
  8  9  2  0
  8 10  1  0
 10 11  1  0
 11 12  1  0
 12 13  1  0
 12 14  1  0
 12 15  1  0
 15 16  1  0
 16 17  1  0
 17 18  2  0
 17 19  1  0
 19 20  1  0
 20 21  1  0
 21 22  1  0
 22 23  1  0
 23 24  1  0
 24 25  3  0
  7 26  2  0
 26 27  1  0
 27 28  1  0
 28  2  2  0
 27  4  1  0
 23 19  1  0
  1 30  1  0
  1 31  1  0
  1 32  1  0
  3 33  1  0
  6 34  1  0
 10 35  1  0
 11 36  1  0
 11 37  1  0
 13 38  1  0
 13 39  1  0
 13 40  1  0
 14 41  1  0
 14 42  1  0
 14 43  1  0
 15 44  1  0
 16 45  1  0
 16 46  1  0
 20 47  1  0
 20 48  1  0
 21 49  1  0
 21 50  1  0
 22 51  1  0
 22 52  1  0
 23 53  1  6
 26 54  1  0
 29 55  1  0
M  END
$$$$
