
     RDKit          3D

 49 52  0  0  0  0  0  0  0  0999 V2000
   -3.5026   -1.8305   -0.0191 N   0  0  0  0  0  0  0  0  0  0  0  0
   -2.7791   -0.7596   -0.7136 C   0  0  1  0  0  0  0  0  0  0  0  0
   -1.6519   -1.3254   -1.6082 C   0  0  0  0  0  0  0  0  0  0  0  0
   -0.5714   -2.0076   -0.8091 C   0  0  0  0  0  0  0  0  0  0  0  0
   -0.6832   -3.2460   -0.5953 O   0  0  0  0  0  0  0  0  0  0  0  0
    0.5770   -1.2910   -0.2977 N   0  0  0  0  0  0  0  0  0  0  0  0
    1.7422   -2.0636    0.1766 C   0  0  0  0  0  0  0  0  0  0  0  0
    3.0505   -1.3344   -0.1476 C   0  0  0  0  0  0  0  0  0  0  0  0
    2.9440    0.0649    0.2543 N   0  0  0  0  0  0  0  0  0  0  0  0
    1.7993    0.7623    0.2644 C   0  0  0  0  0  0  0  0  0  0  0  0
    2.0175    2.0830    0.4032 N   0  0  0  0  0  0  0  0  0  0  0  0
    3.3326    2.2459    0.4568 N   0  0  0  0  0  0  0  0  0  0  0  0
    3.8908    1.0212    0.3594 C   0  0  0  0  0  0  0  0  0  0  0  0
    5.3483    0.8009    0.3087 C   0  0  0  0  0  0  0  0  0  0  0  0
    5.9566   -0.1883    1.0950 C   0  0  0  0  0  0  0  0  0  0  0  0
    7.3423   -0.3568    1.0381 C   0  0  0  0  0  0  0  0  0  0  0  0
    8.0948    0.4434    0.2372 N   0  0  0  0  0  0  0  0  0  0  0  0
    7.5334    1.4228   -0.5201 C   0  0  0  0  0  0  0  0  0  0  0  0
    6.1514    1.6257   -0.4914 C   0  0  0  0  0  0  0  0  0  0  0  0
    0.4543    0.1322    0.0797 C   0  0  0  0  0  0  0  0  0  0  0  0
   -3.7630    0.0695   -1.5593 C   0  0  0  0  0  0  0  0  0  0  0  0
   -4.7973    0.7474   -0.6947 C   0  0  0  0  0  0  0  0  0  0  0  0
   -6.0548    0.1501   -0.5008 C   0  0  0  0  0  0  0  0  0  0  0  0
   -7.0067    0.7598    0.3224 C   0  0  0  0  0  0  0  0  0  0  0  0
   -8.2186    0.1791    0.5018 F   0  0  0  0  0  0  0  0  0  0  0  0
   -6.7084    1.9651    0.9634 C   0  0  0  0  0  0  0  0  0  0  0  0
   -5.4573    2.5610    0.7853 C   0  0  0  0  0  0  0  0  0  0  0  0
   -4.5008    1.9561   -0.0367 C   0  0  0  0  0  0  0  0  0  0  0  0
   -3.2876    2.5458   -0.1883 F   0  0  0  0  0  0  0  0  0  0  0  0
   -2.8711   -2.2673    0.6903 H   0  0  0  0  0  0  0  0  0  0  0  0
   -3.7787   -2.5717   -0.7041 H   0  0  0  0  0  0  0  0  0  0  0  0
   -2.3315   -0.0838    0.0467 H   0  0  0  0  0  0  0  0  0  0  0  0
   -1.1990   -0.5178   -2.2209 H   0  0  0  0  0  0  0  0  0  0  0  0
   -2.0823   -2.0526   -2.3315 H   0  0  0  0  0  0  0  0  0  0  0  0
    1.7810   -3.0659   -0.3028 H   0  0  0  0  0  0  0  0  0  0  0  0
    1.6596   -2.2068    1.2759 H   0  0  0  0  0  0  0  0  0  0  0  0
    3.8840   -1.8372    0.3803 H   0  0  0  0  0  0  0  0  0  0  0  0
    3.2405   -1.3839   -1.2415 H   0  0  0  0  0  0  0  0  0  0  0  0
    5.3737   -0.8016    1.7696 H   0  0  0  0  0  0  0  0  0  0  0  0
    7.8211   -1.1178    1.6398 H   0  0  0  0  0  0  0  0  0  0  0  0
    8.1603    2.0464   -1.1435 H   0  0  0  0  0  0  0  0  0  0  0  0
    5.7119    2.4091   -1.0967 H   0  0  0  0  0  0  0  0  0  0  0  0
   -0.1150    0.2141    1.0293 H   0  0  0  0  0  0  0  0  0  0  0  0
   -0.0727    0.7053   -0.7090 H   0  0  0  0  0  0  0  0  0  0  0  0
   -4.2590   -0.5858   -2.3094 H   0  0  0  0  0  0  0  0  0  0  0  0
   -3.2066    0.8442   -2.1314 H   0  0  0  0  0  0  0  0  0  0  0  0
   -6.2957   -0.7882   -0.9852 H   0  0  0  0  0  0  0  0  0  0  0  0
   -7.4449    2.4364    1.6015 H   0  0  0  0  0  0  0  0  0  0  0  0
   -5.2279    3.4919    1.2879 H   0  0  0  0  0  0  0  0  0  0  0  0
  1  2  1  0
  2  3  1  0
  3  4  1  0
  4  5  2  0
  4  6  1  0
  6  7  1  0
  7  8  1  0
  8  9  1  0
  9 10  1  0
 10 11  2  0
 11 12  1  0
 12 13  2  0
 13 14  1  0
 14 15  2  0
 15 16  1  0
 16 17  2  0
 17 18  1  0
 18 19  2  0
 10 20  1  0
  2 21  1  0
 21 22  1  0
 22 23  2  0
 23 24  1  0
 24 25  1  0
 24 26  2  0
 26 27  1  0
 27 28  2  0
 28 29  1  0
 20  6  1  0
 28 22  1  0
 13  9  1  0
 19 14  1  0
  1 30  1  0
  1 31  1  0
  2 32  1  1
  3 33  1  0
  3 34  1  0
  7 35  1  0
  7 36  1  0
  8 37  1  0
  8 38  1  0
 15 39  1  0
 16 40  1  0
 18 41  1  0
 19 42  1  0
 20 43  1  0
 20 44  1  0
 21 45  1  0
 21 46  1  0
 23 47  1  0
 26 48  1  0
 27 49  1  0
M  END
$$$$
