
     RDKit          3D

 53 54  0  0  0  0  0  0  0  0999 V2000
   -6.2453   -0.2895    0.7838 C   0  0  0  0  0  0  0  0  0  0  0  0
   -5.2670    0.5403   -0.0763 C   0  0  0  0  0  0  0  0  0  0  0  0
   -5.3708    0.0184   -1.5280 C   0  0  0  0  0  0  0  0  0  0  0  0
   -5.6929    2.0337   -0.0293 C   0  0  0  0  0  0  0  0  0  0  0  0
   -5.6556    2.5362    1.2814 O   0  0  0  0  0  0  0  0  0  0  0  0
   -3.8977    0.3259    0.4575 N   0  0  0  0  0  0  0  0  0  0  0  0
   -2.8299    1.0922   -0.2049 C   0  0  0  0  0  0  0  0  0  0  0  0
   -1.4940    0.5628    0.2291 C   0  0  0  0  0  0  0  0  0  0  0  0
   -0.7971    1.2462    1.0274 O   0  0  0  0  0  0  0  0  0  0  0  0
   -1.0108   -0.7151   -0.2278 N   0  0  0  0  0  0  0  0  0  0  0  0
   -1.7752   -1.6219   -1.0710 C   0  0  0  0  0  0  0  0  0  0  0  0
   -0.8606   -2.8135   -1.3323 C   0  0  1  0  0  0  0  0  0  0  0  0
   -0.2922   -2.7039   -2.5911 F   0  0  0  0  0  0  0  0  0  0  0  0
    0.2314   -2.7370   -0.2669 C   0  0  0  0  0  0  0  0  0  0  0  0
    0.2689   -1.2762    0.1855 C   0  0  1  0  0  0  0  0  0  0  0  0
    1.4108   -0.5337   -0.4669 C   0  0  0  0  0  0  0  0  0  0  0  0
    1.2691   -0.0589   -1.6267 O   0  0  0  0  0  0  0  0  0  0  0  0
    2.7117   -0.4049    0.2069 C   0  0  0  0  0  0  0  0  0  0  0  0
    2.9870   -0.9236    1.4193 N   0  0  0  0  0  0  0  0  0  0  0  0
    4.2220   -0.5977    1.6481 O   0  0  0  0  0  0  0  0  0  0  0  0
    4.6962    0.0875    0.6344 C   0  0  0  0  0  0  0  0  0  0  0  0
    6.1035    0.6356    0.5455 C   0  0  0  0  0  0  0  0  0  0  0  0
    6.0416    2.1666    0.3969 C   0  0  0  0  0  0  0  0  0  0  0  0
    6.8979    0.2810    1.8181 C   0  0  0  0  0  0  0  0  0  0  0  0
    6.8079    0.0238   -0.6789 C   0  0  0  0  0  0  0  0  0  0  0  0
    3.7658    0.2440   -0.3295 N   0  0  0  0  0  0  0  0  0  0  0  0
   -7.2912   -0.1723    0.4256 H   0  0  0  0  0  0  0  0  0  0  0  0
   -6.2070    0.0293    1.8474 H   0  0  0  0  0  0  0  0  0  0  0  0
   -5.9773   -1.3675    0.7409 H   0  0  0  0  0  0  0  0  0  0  0  0
   -4.9270   -0.9971   -1.6073 H   0  0  0  0  0  0  0  0  0  0  0  0
   -4.8563    0.6898   -2.2456 H   0  0  0  0  0  0  0  0  0  0  0  0
   -6.4330   -0.0381   -1.8511 H   0  0  0  0  0  0  0  0  0  0  0  0
   -6.7349    2.1306   -0.4040 H   0  0  0  0  0  0  0  0  0  0  0  0
   -5.0641    2.6532   -0.7091 H   0  0  0  0  0  0  0  0  0  0  0  0
   -4.7503    2.9164    1.4224 H   0  0  0  0  0  0  0  0  0  0  0  0
   -3.8787    0.5678    1.4770 H   0  0  0  0  0  0  0  0  0  0  0  0
   -2.8989    2.1686    0.0631 H   0  0  0  0  0  0  0  0  0  0  0  0
   -2.8865    1.0115   -1.3069 H   0  0  0  0  0  0  0  0  0  0  0  0
   -2.6882   -1.9530   -0.5310 H   0  0  0  0  0  0  0  0  0  0  0  0
   -2.0587   -1.1258   -2.0240 H   0  0  0  0  0  0  0  0  0  0  0  0
   -1.4191   -3.7725   -1.2673 H   0  0  0  0  0  0  0  0  0  0  0  0
   -0.0605   -3.3774    0.5947 H   0  0  0  0  0  0  0  0  0  0  0  0
    1.2100   -3.0996   -0.6533 H   0  0  0  0  0  0  0  0  0  0  0  0
    0.3545   -1.2289    1.2939 H   0  0  0  0  0  0  0  0  0  0  0  0
    7.0651    2.5964    0.3398 H   0  0  0  0  0  0  0  0  0  0  0  0
    5.5185    2.6217    1.2659 H   0  0  0  0  0  0  0  0  0  0  0  0
    5.4946    2.4517   -0.5279 H   0  0  0  0  0  0  0  0  0  0  0  0
    6.4095    0.7135    2.7183 H   0  0  0  0  0  0  0  0  0  0  0  0
    7.9331    0.6815    1.7587 H   0  0  0  0  0  0  0  0  0  0  0  0
    6.9592   -0.8215    1.9474 H   0  0  0  0  0  0  0  0  0  0  0  0
    6.2690    0.2846   -1.6155 H   0  0  0  0  0  0  0  0  0  0  0  0
    6.8442   -1.0842   -0.5943 H   0  0  0  0  0  0  0  0  0  0  0  0
    7.8494    0.4031   -0.7618 H   0  0  0  0  0  0  0  0  0  0  0  0
  1  2  1  0
  2  3  1  0
  2  4  1  0
  4  5  1  0
  2  6  1  0
  6  7  1  0
  7  8  1  0
  8  9  2  0
  8 10  1  0
 10 11  1  0
 11 12  1  0
 12 13  1  0
 12 14  1  0
 14 15  1  0
 15 16  1  0
 16 17  2  0
 16 18  1  0
 18 19  2  0
 19 20  1  0
 20 21  1  0
 21 22  1  0
 22 23  1  0
 22 24  1  0
 22 25  1  0
 21 26  2  0
 15 10  1  0
 26 18  1  0
  1 27  1  0
  1 28  1  0
  1 29  1  0
  3 30  1  0
  3 31  1  0
  3 32  1  0
  4 33  1  0
  4 34  1  0
  5 35  1  0
  6 36  1  0
  7 37  1  0
  7 38  1  0
 11 39  1  0
 11 40  1  0
 12 41  1  6
 14 42  1  0
 14 43  1  0
 15 44  1  1
 23 45  1  0
 23 46  1  0
 23 47  1  0
 24 48  1  0
 24 49  1  0
 24 50  1  0
 25 51  1  0
 25 52  1  0
 25 53  1  0
M  END
$$$$
