
     RDKit          3D

 54 56  0  0  0  0  0  0  0  0999 V2000
    4.4252    0.3184   -1.5015 C   0  0  0  0  0  0  0  0  0  0  0  0
    4.3070    1.1485   -0.2107 C   0  0  0  0  0  0  0  0  0  0  0  0
    5.1854    0.5250    0.8894 C   0  0  0  0  0  0  0  0  0  0  0  0
    4.7838    2.5882   -0.4857 C   0  0  0  0  0  0  0  0  0  0  0  0
    2.8647    1.1501    0.2440 C   0  0  0  0  0  0  0  0  0  0  0  0
    2.1931    0.0410    0.6131 N   0  0  0  0  0  0  0  0  0  0  0  0
    0.9776    0.5496    0.9032 C   0  0  0  0  0  0  0  0  0  0  0  0
   -0.1766   -0.2740    1.3989 C   0  0  2  0  0  0  0  0  0  0  0  0
    0.0037   -0.6485    2.8703 C   0  0  0  0  0  0  0  0  0  0  0  0
    0.5050   -2.0891    2.8722 C   0  0  0  0  0  0  0  0  0  0  0  0
    0.0766   -2.6784    1.5350 C   0  0  0  0  0  0  0  0  0  0  0  0
   -0.2393   -1.5434    0.6827 N   0  0  0  0  0  0  0  0  0  0  0  0
   -0.5654   -1.6993   -0.7137 C   0  0  0  0  0  0  0  0  0  0  0  0
   -0.5029   -2.8459   -1.2362 O   0  0  0  0  0  0  0  0  0  0  0  0
   -0.8999   -0.5156   -1.5897 C   0  0  0  0  0  0  0  0  0  0  0  0
   -2.0123   -0.8165   -2.6212 C   0  0  2  0  0  0  0  0  0  0  0  0
   -2.2150    0.3535   -3.4795 N   0  0  0  0  0  0  0  0  0  0  0  0
   -3.3516   -1.2418   -1.9651 C   0  0  0  0  0  0  0  0  0  0  0  0
   -3.8704   -0.2517   -0.9447 C   0  0  0  0  0  0  0  0  0  0  0  0
   -4.4469    0.9587   -1.3683 C   0  0  0  0  0  0  0  0  0  0  0  0
   -4.8993    1.8940   -0.4327 C   0  0  0  0  0  0  0  0  0  0  0  0
   -5.4472    3.0605   -0.8544 F   0  0  0  0  0  0  0  0  0  0  0  0
   -4.7871    1.6272    0.9345 C   0  0  0  0  0  0  0  0  0  0  0  0
   -5.2232    2.5346    1.8429 F   0  0  0  0  0  0  0  0  0  0  0  0
   -4.2317    0.4206    1.3667 C   0  0  0  0  0  0  0  0  0  0  0  0
   -3.7796   -0.5201    0.4360 C   0  0  0  0  0  0  0  0  0  0  0  0
   -3.2609   -1.6905    0.8855 F   0  0  0  0  0  0  0  0  0  0  0  0
    0.9193    1.8838    0.7326 N   0  0  0  0  0  0  0  0  0  0  0  0
    2.1038    2.2167    0.3203 O   0  0  0  0  0  0  0  0  0  0  0  0
    5.4756    0.3061   -1.8647 H   0  0  0  0  0  0  0  0  0  0  0  0
    4.1067   -0.7321   -1.3253 H   0  0  0  0  0  0  0  0  0  0  0  0
    3.7828    0.7475   -2.3011 H   0  0  0  0  0  0  0  0  0  0  0  0
    5.0931    1.1019    1.8352 H   0  0  0  0  0  0  0  0  0  0  0  0
    6.2539    0.5228    0.5831 H   0  0  0  0  0  0  0  0  0  0  0  0
    4.8812   -0.5252    1.0902 H   0  0  0  0  0  0  0  0  0  0  0  0
    5.8447    2.5934   -0.8174 H   0  0  0  0  0  0  0  0  0  0  0  0
    4.7037    3.2092    0.4329 H   0  0  0  0  0  0  0  0  0  0  0  0
    4.1690    3.0596   -1.2830 H   0  0  0  0  0  0  0  0  0  0  0  0
   -1.1276    0.2878    1.2804 H   0  0  0  0  0  0  0  0  0  0  0  0
   -0.9839   -0.6090    3.3813 H   0  0  0  0  0  0  0  0  0  0  0  0
    0.7056    0.0258    3.4099 H   0  0  0  0  0  0  0  0  0  0  0  0
    0.0820   -2.6645    3.7241 H   0  0  0  0  0  0  0  0  0  0  0  0
    1.6151   -2.0929    2.9429 H   0  0  0  0  0  0  0  0  0  0  0  0
    0.9015   -3.2789    1.0933 H   0  0  0  0  0  0  0  0  0  0  0  0
   -0.8279   -3.3123    1.6603 H   0  0  0  0  0  0  0  0  0  0  0  0
   -1.2045    0.3614   -0.9856 H   0  0  0  0  0  0  0  0  0  0  0  0
    0.0287   -0.2283   -2.1281 H   0  0  0  0  0  0  0  0  0  0  0  0
   -1.6711   -1.6605   -3.2640 H   0  0  0  0  0  0  0  0  0  0  0  0
   -1.3174    0.5628   -3.9746 H   0  0  0  0  0  0  0  0  0  0  0  0
   -2.8991    0.0999   -4.2293 H   0  0  0  0  0  0  0  0  0  0  0  0
   -4.1204   -1.3759   -2.7571 H   0  0  0  0  0  0  0  0  0  0  0  0
   -3.2276   -2.2448   -1.5039 H   0  0  0  0  0  0  0  0  0  0  0  0
   -4.5482    1.1782   -2.4234 H   0  0  0  0  0  0  0  0  0  0  0  0
   -4.1519    0.2122    2.4260 H   0  0  0  0  0  0  0  0  0  0  0  0
  1  2  1  0
  2  3  1  0
  2  4  1  0
  2  5  1  0
  5  6  2  0
  6  7  1  0
  7  8  1  0
  8  9  1  0
  9 10  1  0
 10 11  1  0
 11 12  1  0
 12 13  1  0
 13 14  2  0
 13 15  1  0
 15 16  1  0
 16 17  1  0
 16 18  1  0
 18 19  1  0
 19 20  2  0
 20 21  1  0
 21 22  1  0
 21 23  2  0
 23 24  1  0
 23 25  1  0
 25 26  2  0
 26 27  1  0
  7 28  2  0
 28 29  1  0
 29  5  1  0
 12  8  1  0
 26 19  1  0
  1 30  1  0
  1 31  1  0
  1 32  1  0
  3 33  1  0
  3 34  1  0
  3 35  1  0
  4 36  1  0
  4 37  1  0
  4 38  1  0
  8 39  1  1
  9 40  1  0
  9 41  1  0
 10 42  1  0
 10 43  1  0
 11 44  1  0
 11 45  1  0
 15 46  1  0
 15 47  1  0
 16 48  1  6
 17 49  1  0
 17 50  1  0
 18 51  1  0
 18 52  1  0
 20 53  1  0
 25 54  1  0
M  END
$$$$
