
     RDKit          3D

 43 45  0  0  0  0  0  0  0  0999 V2000
    0.7950   -0.3697   -0.1436 N   0  0  0  0  0  0  0  0  0  0  0  0
    1.7054    0.3036    0.7901 C   0  0  1  0  0  0  0  0  0  0  0  0
    0.9760    0.7222    2.0857 C   0  0  0  0  0  0  0  0  0  0  0  0
   -0.0730    1.7669    1.8119 C   0  0  0  0  0  0  0  0  0  0  0  0
    0.2856    2.9679    1.6736 O   0  0  0  0  0  0  0  0  0  0  0  0
   -1.4469    1.4066    1.5869 N   0  0  0  0  0  0  0  0  0  0  0  0
   -2.1824    0.5587    2.5399 C   0  0  0  0  0  0  0  0  0  0  0  0
   -2.9239   -0.5501    1.7816 C   0  0  0  0  0  0  0  0  0  0  0  0
   -3.5943    0.0137    0.6134 N   0  0  0  0  0  0  0  0  0  0  0  0
   -4.5448   -0.5740   -0.0867 N   0  0  0  0  0  0  0  0  0  0  0  0
   -4.7972    0.2690   -1.1124 C   0  0  0  0  0  0  0  0  0  0  0  0
   -5.7783   -0.0288   -2.1991 C   0  0  0  0  0  0  0  0  0  0  0  0
   -6.8243   -0.7815   -1.6972 F   0  0  0  0  0  0  0  0  0  0  0  0
   -6.2800    1.1508   -2.7179 F   0  0  0  0  0  0  0  0  0  0  0  0
   -5.1478   -0.7373   -3.2042 F   0  0  0  0  0  0  0  0  0  0  0  0
   -4.0011    1.3662   -1.1059 N   0  0  0  0  0  0  0  0  0  0  0  0
   -3.2585    1.1551   -0.0032 C   0  0  0  0  0  0  0  0  0  0  0  0
   -2.2014    2.0777    0.5177 C   0  0  0  0  0  0  0  0  0  0  0  0
    2.8903   -0.6229    1.1207 C   0  0  0  0  0  0  0  0  0  0  0  0
    3.6929   -0.9545   -0.1138 C   0  0  0  0  0  0  0  0  0  0  0  0
    4.6645   -0.0513   -0.5778 C   0  0  0  0  0  0  0  0  0  0  0  0
    5.3957   -0.3326   -1.7361 C   0  0  0  0  0  0  0  0  0  0  0  0
    6.3332    0.5444   -2.1728 F   0  0  0  0  0  0  0  0  0  0  0  0
    5.1577   -1.5141   -2.4443 C   0  0  0  0  0  0  0  0  0  0  0  0
    5.8651   -1.7875   -3.5685 F   0  0  0  0  0  0  0  0  0  0  0  0
    4.1863   -2.4135   -1.9964 C   0  0  0  0  0  0  0  0  0  0  0  0
    3.4516   -2.1375   -0.8384 C   0  0  0  0  0  0  0  0  0  0  0  0
    2.5063   -3.0210   -0.4287 F   0  0  0  0  0  0  0  0  0  0  0  0
    0.2583   -1.1128    0.3609 H   0  0  0  0  0  0  0  0  0  0  0  0
    0.1081    0.3242   -0.5162 H   0  0  0  0  0  0  0  0  0  0  0  0
    2.1101    1.2192    0.3012 H   0  0  0  0  0  0  0  0  0  0  0  0
    0.5383   -0.1753    2.5668 H   0  0  0  0  0  0  0  0  0  0  0  0
    1.7101    1.1501    2.8030 H   0  0  0  0  0  0  0  0  0  0  0  0
   -2.9228    1.1875    3.0807 H   0  0  0  0  0  0  0  0  0  0  0  0
   -1.5161    0.1107    3.3044 H   0  0  0  0  0  0  0  0  0  0  0  0
   -2.1950   -1.3184    1.4455 H   0  0  0  0  0  0  0  0  0  0  0  0
   -3.6696   -1.0305    2.4506 H   0  0  0  0  0  0  0  0  0  0  0  0
   -1.5244    2.3547   -0.3193 H   0  0  0  0  0  0  0  0  0  0  0  0
   -2.6782    2.9962    0.9200 H   0  0  0  0  0  0  0  0  0  0  0  0
    3.5574   -0.1247    1.8585 H   0  0  0  0  0  0  0  0  0  0  0  0
    2.5199   -1.5530    1.6051 H   0  0  0  0  0  0  0  0  0  0  0  0
    4.8527    0.8710   -0.0421 H   0  0  0  0  0  0  0  0  0  0  0  0
    3.9998   -3.3253   -2.5493 H   0  0  0  0  0  0  0  0  0  0  0  0
  1  2  1  0
  2  3  1  0
  3  4  1  0
  4  5  2  0
  4  6  1  0
  6  7  1  0
  7  8  1  0
  8  9  1  0
  9 10  1  0
 10 11  2  0
 11 12  1  0
 12 13  1  0
 12 14  1  0
 12 15  1  0
 11 16  1  0
 16 17  2  0
 17 18  1  0
  2 19  1  0
 19 20  1  0
 20 21  2  0
 21 22  1  0
 22 23  1  0
 22 24  2  0
 24 25  1  0
 24 26  1  0
 26 27  2  0
 27 28  1  0
 18  6  1  0
 27 20  1  0
 17  9  1  0
  1 29  1  0
  1 30  1  0
  2 31  1  6
  3 32  1  0
  3 33  1  0
  7 34  1  0
  7 35  1  0
  8 36  1  0
  8 37  1  0
 18 38  1  0
 18 39  1  0
 19 40  1  0
 19 41  1  0
 21 42  1  0
 26 43  1  0
M  END
$$$$
