
     RDKit          3D

 35 36  0  0  0  0  0  0  0  0999 V2000
   -1.0563   -3.8417    0.5998 N   0  0  0  0  0  0  0  0  0  0  0  0
   -0.9641   -2.3795    0.5695 C   0  0  1  0  0  0  0  0  0  0  0  0
    0.4241   -1.9594    1.1052 C   0  0  0  0  0  0  0  0  0  0  0  0
    0.4767   -0.5058    1.5124 C   0  0  0  0  0  0  0  0  0  0  0  0
   -0.3429   -0.1002    2.3818 O   0  0  0  0  0  0  0  0  0  0  0  0
    1.4421    0.4183    0.9669 N   0  0  0  0  0  0  0  0  0  0  0  0
    1.4198    1.8264    1.3411 C   0  0  0  0  0  0  0  0  0  0  0  0
    2.7042    2.4709    0.8486 C   0  0  0  0  0  0  0  0  0  0  0  0
    3.2977    1.5317   -0.5834 S   0  0  0  0  0  0  0  0  0  0  0  0
    2.4935    0.0277    0.0357 C   0  0  0  0  0  0  0  0  0  0  0  0
   -1.2444   -1.8625   -0.8670 C   0  0  0  0  0  0  0  0  0  0  0  0
   -1.3799   -0.3608   -0.9564 C   0  0  0  0  0  0  0  0  0  0  0  0
   -2.3958    0.3088   -0.2519 C   0  0  0  0  0  0  0  0  0  0  0  0
   -2.5075    1.7004   -0.3268 C   0  0  0  0  0  0  0  0  0  0  0  0
   -1.6199    2.4338   -1.1197 C   0  0  0  0  0  0  0  0  0  0  0  0
   -1.7730    4.5343   -1.2116 I   0  0  0  0  0  0  0  0  0  0  0  0
   -0.6277    1.7731   -1.8492 C   0  0  0  0  0  0  0  0  0  0  0  0
   -0.5131    0.3822   -1.7764 C   0  0  0  0  0  0  0  0  0  0  0  0
   -0.4153   -4.2460   -0.1221 H   0  0  0  0  0  0  0  0  0  0  0  0
   -2.0316   -4.1260    0.3494 H   0  0  0  0  0  0  0  0  0  0  0  0
   -1.7456   -1.9891    1.2579 H   0  0  0  0  0  0  0  0  0  0  0  0
    0.6516   -2.5575    2.0143 H   0  0  0  0  0  0  0  0  0  0  0  0
    1.2020   -2.2209    0.3614 H   0  0  0  0  0  0  0  0  0  0  0  0
    1.3519    1.9344    2.4456 H   0  0  0  0  0  0  0  0  0  0  0  0
    0.5404    2.3171    0.8731 H   0  0  0  0  0  0  0  0  0  0  0  0
    3.4787    2.4248    1.6440 H   0  0  0  0  0  0  0  0  0  0  0  0
    2.5319    3.5314    0.5679 H   0  0  0  0  0  0  0  0  0  0  0  0
    3.2387   -0.6110    0.5546 H   0  0  0  0  0  0  0  0  0  0  0  0
    2.0690   -0.5132   -0.8329 H   0  0  0  0  0  0  0  0  0  0  0  0
   -2.1952   -2.3066   -1.2338 H   0  0  0  0  0  0  0  0  0  0  0  0
   -0.4419   -2.2233   -1.5477 H   0  0  0  0  0  0  0  0  0  0  0  0
   -3.0972   -0.2440    0.3599 H   0  0  0  0  0  0  0  0  0  0  0  0
   -3.2830    2.2078    0.2321 H   0  0  0  0  0  0  0  0  0  0  0  0
    0.0572    2.3365   -2.4695 H   0  0  0  0  0  0  0  0  0  0  0  0
    0.2552   -0.1122   -2.3566 H   0  0  0  0  0  0  0  0  0  0  0  0
  1  2  1  0
  2  3  1  0
  3  4  1  0
  4  5  2  0
  4  6  1  0
  6  7  1  0
  7  8  1  0
  8  9  1  0
  9 10  1  0
  2 11  1  0
 11 12  1  0
 12 13  2  0
 13 14  1  0
 14 15  2  0
 15 16  1  0
 15 17  1  0
 17 18  2  0
 10  6  1  0
 18 12  1  0
  1 19  1  0
  1 20  1  0
  2 21  1  1
  3 22  1  0
  3 23  1  0
  7 24  1  0
  7 25  1  0
  8 26  1  0
  8 27  1  0
 10 28  1  0
 10 29  1  0
 11 30  1  0
 11 31  1  0
 13 32  1  0
 14 33  1  0
 17 34  1  0
 18 35  1  0
M  END
$$$$
