
     RDKit          3D

 49 50  0  0  0  0  0  0  0  0999 V2000
    5.3336    0.3757    3.6437 C   0  0  0  0  0  0  0  0  0  0  0  0
    4.6627    0.7661    2.4499 O   0  0  0  0  0  0  0  0  0  0  0  0
    4.3799   -0.0980    1.3817 C   0  0  0  0  0  0  0  0  0  0  0  0
    4.7424   -1.4587    1.3950 C   0  0  0  0  0  0  0  0  0  0  0  0
    4.4297   -2.2801    0.3088 C   0  0  0  0  0  0  0  0  0  0  0  0
    3.7602   -1.7560   -0.7992 C   0  0  0  0  0  0  0  0  0  0  0  0
    3.4080   -0.3983   -0.8337 C   0  0  0  0  0  0  0  0  0  0  0  0
    2.6497    0.1611   -2.0063 C   0  0  0  0  0  0  0  0  0  0  0  0
    1.2120    0.1502   -1.7154 N   0  0  0  0  0  0  0  0  0  0  0  0
    0.4549    0.7277   -2.8342 C   0  0  0  0  0  0  0  0  0  0  0  0
   -0.9843    1.0565   -2.4096 C   0  0  0  0  0  0  0  0  0  0  0  0
   -1.8329   -0.1808   -2.0268 C   0  0  2  0  0  0  0  0  0  0  0  0
   -2.0286   -1.0853   -3.1644 N   0  0  0  0  0  0  0  0  0  0  0  0
   -3.1781    0.2624   -1.5071 C   0  0  0  0  0  0  0  0  0  0  0  0
   -4.0455    0.6730   -2.3268 O   0  0  0  0  0  0  0  0  0  0  0  0
   -3.4926    0.2175   -0.1003 N   0  0  0  0  0  0  0  0  0  0  0  0
   -2.5314    0.7061    0.9006 C   0  0  0  0  0  0  0  0  0  0  0  0
   -2.6181   -0.1359    2.1763 C   0  0  0  0  0  0  0  0  0  0  0  0
   -4.0619   -0.2094    2.6823 C   0  0  0  0  0  0  0  0  0  0  0  0
   -4.9885   -0.7631    1.5955 C   0  0  0  0  0  0  0  0  0  0  0  0
   -4.8944    0.0744    0.3162 C   0  0  0  0  0  0  0  0  0  0  0  0
    3.7098    0.4205    0.2664 C   0  0  0  0  0  0  0  0  0  0  0  0
    5.4224    1.2551    4.3138 H   0  0  0  0  0  0  0  0  0  0  0  0
    4.7532   -0.4132    4.1672 H   0  0  0  0  0  0  0  0  0  0  0  0
    6.3532    0.0059    3.4052 H   0  0  0  0  0  0  0  0  0  0  0  0
    5.2603   -1.8911    2.2402 H   0  0  0  0  0  0  0  0  0  0  0  0
    4.7036   -3.3272    0.3275 H   0  0  0  0  0  0  0  0  0  0  0  0
    3.5152   -2.4081   -1.6284 H   0  0  0  0  0  0  0  0  0  0  0  0
    2.9956    1.2024   -2.1928 H   0  0  0  0  0  0  0  0  0  0  0  0
    2.8647   -0.4349   -2.9227 H   0  0  0  0  0  0  0  0  0  0  0  0
    0.9243   -0.8520   -1.6185 H   0  0  0  0  0  0  0  0  0  0  0  0
    0.4603    0.0402   -3.7085 H   0  0  0  0  0  0  0  0  0  0  0  0
    0.9234    1.6836   -3.1602 H   0  0  0  0  0  0  0  0  0  0  0  0
   -0.9397    1.7580   -1.5481 H   0  0  0  0  0  0  0  0  0  0  0  0
   -1.4813    1.6008   -3.2427 H   0  0  0  0  0  0  0  0  0  0  0  0
   -1.3266   -0.7520   -1.2204 H   0  0  0  0  0  0  0  0  0  0  0  0
   -1.1420   -1.6101   -3.3419 H   0  0  0  0  0  0  0  0  0  0  0  0
   -2.2528   -0.5351   -4.0257 H   0  0  0  0  0  0  0  0  0  0  0  0
   -2.7611    1.7678    1.1378 H   0  0  0  0  0  0  0  0  0  0  0  0
   -1.4887    0.6668    0.5273 H   0  0  0  0  0  0  0  0  0  0  0  0
   -1.9732    0.3144    2.9614 H   0  0  0  0  0  0  0  0  0  0  0  0
   -2.2433   -1.1620    1.9673 H   0  0  0  0  0  0  0  0  0  0  0  0
   -4.4050    0.8037    2.9876 H   0  0  0  0  0  0  0  0  0  0  0  0
   -4.1055   -0.8706    3.5744 H   0  0  0  0  0  0  0  0  0  0  0  0
   -4.7073   -1.8152    1.3690 H   0  0  0  0  0  0  0  0  0  0  0  0
   -6.0366   -0.7580    1.9646 H   0  0  0  0  0  0  0  0  0  0  0  0
   -5.3320    1.0815    0.4907 H   0  0  0  0  0  0  0  0  0  0  0  0
   -5.4894   -0.4316   -0.4756 H   0  0  0  0  0  0  0  0  0  0  0  0
    3.4218    1.4649    0.2590 H   0  0  0  0  0  0  0  0  0  0  0  0
  1  2  1  0
  2  3  1  0
  3  4  2  0
  4  5  1  0
  5  6  2  0
  6  7  1  0
  7  8  1  0
  8  9  1  0
  9 10  1  0
 10 11  1  0
 11 12  1  0
 12 13  1  0
 12 14  1  0
 14 15  2  0
 14 16  1  0
 16 17  1  0
 17 18  1  0
 18 19  1  0
 19 20  1  0
 20 21  1  0
  7 22  2  0
 22  3  1  0
 21 16  1  0
  1 23  1  0
  1 24  1  0
  1 25  1  0
  4 26  1  0
  5 27  1  0
  6 28  1  0
  8 29  1  0
  8 30  1  0
  9 31  1  0
 10 32  1  0
 10 33  1  0
 11 34  1  0
 11 35  1  0
 12 36  1  1
 13 37  1  0
 13 38  1  0
 17 39  1  0
 17 40  1  0
 18 41  1  0
 18 42  1  0
 19 43  1  0
 19 44  1  0
 20 45  1  0
 20 46  1  0
 21 47  1  0
 21 48  1  0
 22 49  1  0
M  END
$$$$
