
     RDKit          3D

 59 63  0  0  0  0  0  0  0  0999 V2000
   -2.4219    0.8401    2.3624 C   0  0  0  0  0  0  0  0  0  0  0  0
   -3.9081    0.9942    1.3982 S   0  0  0  0  0  0  0  0  0  0  0  0
   -4.1827    2.4420    1.1054 O   0  0  0  0  0  0  0  0  0  0  0  0
   -5.0589    0.4195    2.1758 O   0  0  0  0  0  0  0  0  0  0  0  0
   -3.7151    0.1304   -0.0872 N   0  0  0  0  0  0  0  0  0  0  0  0
   -4.5510   -0.8193   -0.5641 C   0  0  0  0  0  0  0  0  0  0  0  0
   -4.0583   -1.1936   -1.7917 C   0  0  0  0  0  0  0  0  0  0  0  0
   -2.9886   -0.4230   -2.0100 C   0  0  0  0  0  0  0  0  0  0  0  0
   -2.7918    0.4324   -0.9921 N   0  0  0  0  0  0  0  0  0  0  0  0
   -2.7691   -0.2221   -3.4536 C   0  0  0  0  0  0  0  0  0  0  0  0
   -3.7081   -1.1750   -4.1062 N   0  0  0  0  0  0  0  0  0  0  0  0
   -3.0131   -2.3161   -4.7540 C   0  0  0  0  0  0  0  0  0  0  0  0
   -2.4099   -3.3088   -3.7786 C   0  0  0  0  0  0  0  0  0  0  0  0
   -3.0109   -4.3963   -3.5658 O   0  0  0  0  0  0  0  0  0  0  0  0
   -1.2193   -3.0104   -3.0334 N   0  0  0  0  0  0  0  0  0  0  0  0
   -0.0264   -2.4303   -3.5570 C   0  0  0  0  0  0  0  0  0  0  0  0
    0.1749   -2.3048   -4.7934 O   0  0  0  0  0  0  0  0  0  0  0  0
    1.2122   -1.9600   -2.3458 S   0  0  0  0  0  0  0  0  0  0  0  0
    0.1225   -2.6159   -1.0645 C   0  0  0  0  0  0  0  0  0  0  0  0
    0.3132   -2.4583    0.2548 C   0  0  0  0  0  0  0  0  0  0  0  0
    1.5063   -1.8234    0.8509 C   0  0  0  0  0  0  0  0  0  0  0  0
    1.3372   -0.8997    1.8915 C   0  0  0  0  0  0  0  0  0  0  0  0
    2.4459   -0.2963    2.4914 C   0  0  0  0  0  0  0  0  0  0  0  0
    3.7480   -0.6229    2.0675 C   0  0  0  0  0  0  0  0  0  0  0  0
    4.8960   -0.0367    2.6249 O   0  0  0  0  0  0  0  0  0  0  0  0
    4.8986    1.0275    3.5775 C   0  0  0  0  0  0  0  0  0  0  0  0
    4.4238    2.3108    2.9482 C   0  0  0  0  0  0  0  0  0  0  0  0
    3.4049    3.0683    3.5503 C   0  0  0  0  0  0  0  0  0  0  0  0
    2.9733    4.2613    2.9622 C   0  0  0  0  0  0  0  0  0  0  0  0
    3.5607    4.7107    1.7764 C   0  0  0  0  0  0  0  0  0  0  0  0
    4.5835    3.9695    1.1784 C   0  0  0  0  0  0  0  0  0  0  0  0
    5.0177    2.7757    1.7629 C   0  0  0  0  0  0  0  0  0  0  0  0
    3.9155   -1.5738    1.0545 C   0  0  0  0  0  0  0  0  0  0  0  0
    2.8067   -2.1773    0.4545 C   0  0  0  0  0  0  0  0  0  0  0  0
   -1.1116   -3.1625   -1.6254 C   0  0  0  0  0  0  0  0  0  0  0  0
   -2.0228   -3.6865   -0.9283 O   0  0  0  0  0  0  0  0  0  0  0  0
   -4.6886   -1.5939   -3.0648 C   0  0  0  0  0  0  0  0  0  0  0  0
   -1.5661    1.2602    1.7946 H   0  0  0  0  0  0  0  0  0  0  0  0
   -2.2301   -0.2316    2.5763 H   0  0  0  0  0  0  0  0  0  0  0  0
   -2.5380    1.3925    3.3175 H   0  0  0  0  0  0  0  0  0  0  0  0
   -5.4979   -1.1006   -0.1225 H   0  0  0  0  0  0  0  0  0  0  0  0
   -3.0594    0.8141   -3.7288 H   0  0  0  0  0  0  0  0  0  0  0  0
   -1.7068   -0.3763   -3.7283 H   0  0  0  0  0  0  0  0  0  0  0  0
   -2.2348   -1.9371   -5.4477 H   0  0  0  0  0  0  0  0  0  0  0  0
   -3.7454   -2.8496   -5.3981 H   0  0  0  0  0  0  0  0  0  0  0  0
   -0.4830   -2.7411    0.9339 H   0  0  0  0  0  0  0  0  0  0  0  0
    0.3437   -0.6366    2.2326 H   0  0  0  0  0  0  0  0  0  0  0  0
    2.2766    0.4158    3.2856 H   0  0  0  0  0  0  0  0  0  0  0  0
    5.9391    1.1775    3.9339 H   0  0  0  0  0  0  0  0  0  0  0  0
    4.2878    0.7455    4.4623 H   0  0  0  0  0  0  0  0  0  0  0  0
    2.9415    2.7346    4.4704 H   0  0  0  0  0  0  0  0  0  0  0  0
    2.1840    4.8382    3.4266 H   0  0  0  0  0  0  0  0  0  0  0  0
    3.2256    5.6344    1.3228 H   0  0  0  0  0  0  0  0  0  0  0  0
    5.0407    4.3205    0.2624 H   0  0  0  0  0  0  0  0  0  0  0  0
    5.8130    2.2119    1.2911 H   0  0  0  0  0  0  0  0  0  0  0  0
    4.9119   -1.8486    0.7324 H   0  0  0  0  0  0  0  0  0  0  0  0
    2.9665   -2.9324   -0.3044 H   0  0  0  0  0  0  0  0  0  0  0  0
   -4.9222   -2.6797   -3.0777 H   0  0  0  0  0  0  0  0  0  0  0  0
   -5.6312   -1.0234   -3.2065 H   0  0  0  0  0  0  0  0  0  0  0  0
  1  2  1  0
  2  3  2  0
  2  4  2  0
  2  5  1  0
  5  6  1  0
  6  7  2  0
  7  8  1  0
  8  9  2  0
  8 10  1  0
 10 11  1  0
 11 12  1  0
 12 13  1  0
 13 14  2  0
 13 15  1  0
 15 16  1  0
 16 17  2  0
 16 18  1  0
 18 19  1  0
 19 20  2  0
 20 21  1  0
 21 22  2  0
 22 23  1  0
 23 24  2  0
 24 25  1  0
 25 26  1  0
 26 27  1  0
 27 28  2  0
 28 29  1  0
 29 30  2  0
 30 31  1  0
 31 32  2  0
 24 33  1  0
 33 34  2  0
 19 35  1  0
 35 36  2  0
 11 37  1  0
  9  5  1  0
 35 15  1  0
 37  7  1  0
 34 21  1  0
 32 27  1  0
  1 38  1  0
  1 39  1  0
  1 40  1  0
  6 41  1  0
 10 42  1  0
 10 43  1  0
 12 44  1  0
 12 45  1  0
 20 46  1  0
 22 47  1  0
 23 48  1  0
 26 49  1  0
 26 50  1  0
 28 51  1  0
 29 52  1  0
 30 53  1  0
 31 54  1  0
 32 55  1  0
 33 56  1  0
 34 57  1  0
 37 58  1  0
 37 59  1  0
M  END
$$$$
