
     RDKit          3D

 45 47  0  0  0  0  0  0  0  0999 V2000
    1.5350   -2.3069   -0.1587 N   0  0  0  0  0  0  0  0  0  0  0  0
    0.6292   -1.1902   -0.4429 C   0  0  1  0  0  0  0  0  0  0  0  0
   -0.8074   -1.5194    0.0263 C   0  0  0  0  0  0  0  0  0  0  0  0
   -1.6425   -0.3187   -0.0012 N   0  0  0  0  0  0  0  0  0  0  0  0
   -1.2050    0.9635    0.0164 C   0  0  0  0  0  0  0  0  0  0  0  0
   -2.2056    1.8802    0.0887 N   0  0  0  0  0  0  0  0  0  0  0  0
   -3.3085    1.1076    0.1519 C   0  0  0  0  0  0  0  0  0  0  0  0
   -4.6323    1.5253    0.2651 C   0  0  0  0  0  0  0  0  0  0  0  0
   -5.6286    0.5330    0.3381 C   0  0  0  0  0  0  0  0  0  0  0  0
   -5.2807   -0.8375    0.2999 C   0  0  0  0  0  0  0  0  0  0  0  0
   -6.2506   -1.7816    0.3753 F   0  0  0  0  0  0  0  0  0  0  0  0
   -3.9327   -1.2272    0.1850 C   0  0  0  0  0  0  0  0  0  0  0  0
   -2.9744   -0.2165    0.1077 C   0  0  0  0  0  0  0  0  0  0  0  0
    0.2429    1.3212   -0.1222 C   0  0  0  0  0  0  0  0  0  0  0  0
    1.1365    0.1124    0.2368 C   0  0  2  0  0  0  0  0  0  0  0  0
    2.5987    0.4040   -0.0738 C   0  0  0  0  0  0  0  0  0  0  0  0
    3.5229    0.4904    0.9853 C   0  0  0  0  0  0  0  0  0  0  0  0
    4.8722    0.7559    0.7350 C   0  0  0  0  0  0  0  0  0  0  0  0
    5.7481    0.8340    1.7674 F   0  0  0  0  0  0  0  0  0  0  0  0
    5.3178    0.9406   -0.5754 C   0  0  0  0  0  0  0  0  0  0  0  0
    6.6267    1.1983   -0.8192 F   0  0  0  0  0  0  0  0  0  0  0  0
    4.4143    0.8610   -1.6366 C   0  0  0  0  0  0  0  0  0  0  0  0
    3.0623    0.5957   -1.3955 C   0  0  0  0  0  0  0  0  0  0  0  0
    2.2175    0.5306   -2.4545 F   0  0  0  0  0  0  0  0  0  0  0  0
    0.8361    0.8725   -1.2240 O   0  0  0  0  0  0  0  0  0  0  0  0
    0.4795    0.1147   -0.2824 C   0  0  0  0  0  0  0  0  0  0  0  0
    1.4298   -0.6434    0.3952 O   0  0  0  0  0  0  0  0  0  0  0  0
   -0.9519    0.0753    0.1446 C   0  0  0  0  0  0  0  0  0  0  0  0
   -1.2182   -1.1148    0.7969 F   0  0  0  0  0  0  0  0  0  0  0  0
   -1.7779    0.1774   -0.9602 F   0  0  0  0  0  0  0  0  0  0  0  0
   -1.2040    1.1298    1.0016 F   0  0  0  0  0  0  0  0  0  0  0  0
    1.1822   -3.1590   -0.6522 H   0  0  0  0  0  0  0  0  0  0  0  0
    1.5239   -2.5107    0.8675 H   0  0  0  0  0  0  0  0  0  0  0  0
    0.5943   -1.0384   -1.5433 H   0  0  0  0  0  0  0  0  0  0  0  0
   -0.7896   -1.9147    1.0651 H   0  0  0  0  0  0  0  0  0  0  0  0
   -1.2444   -2.2955   -0.6385 H   0  0  0  0  0  0  0  0  0  0  0  0
   -4.8872    2.5766    0.3005 H   0  0  0  0  0  0  0  0  0  0  0  0
   -6.6676    0.8226    0.4276 H   0  0  0  0  0  0  0  0  0  0  0  0
   -3.6549   -2.2727    0.1569 H   0  0  0  0  0  0  0  0  0  0  0  0
    0.4144    1.6465   -1.1688 H   0  0  0  0  0  0  0  0  0  0  0  0
    0.4789    2.1730    0.5516 H   0  0  0  0  0  0  0  0  0  0  0  0
    1.0313   -0.0410    1.3359 H   0  0  0  0  0  0  0  0  0  0  0  0
    3.2005    0.3509    2.0097 H   0  0  0  0  0  0  0  0  0  0  0  0
    4.7624    1.0062   -2.6513 H   0  0  0  0  0  0  0  0  0  0  0  0
    2.4065   -0.6114    0.1283 H   0  0  0  0  0  0  0  0  0  0  0  0
  1  2  1  0
  2  3  1  0
  3  4  1  0
  4  5  1  0
  5  6  2  0
  6  7  1  0
  7  8  2  0
  8  9  1  0
  9 10  2  0
 10 11  1  0
 10 12  1  0
 12 13  2  0
  5 14  1  0
 14 15  1  0
 15 16  1  0
 16 17  2  0
 17 18  1  0
 18 19  1  0
 18 20  2  0
 20 21  1  0
 20 22  1  0
 22 23  2  0
 23 24  1  0
 25 26  2  0
 26 27  1  0
 26 28  1  0
 28 29  1  0
 28 30  1  0
 28 31  1  0
 15  2  1  0
 23 16  1  0
 13  4  1  0
 13  7  1  0
  1 32  1  0
  1 33  1  0
  2 34  1  6
  3 35  1  0
  3 36  1  0
  8 37  1  0
  9 38  1  0
 12 39  1  0
 14 40  1  0
 14 41  1  0
 15 42  1  1
 17 43  1  0
 22 44  1  0
 27 45  1  0
M  END
$$$$
