
     RDKit          3D

 54 56  0  0  0  0  0  0  0  0999 V2000
   -6.0937   -2.4238    1.8431 C   0  0  0  0  0  0  0  0  0  0  0  0
   -5.5910   -1.3304    1.7736 C   0  0  0  0  0  0  0  0  0  0  0  0
   -4.9747    0.0039    1.6864 C   0  0  2  0  0  0  0  0  0  0  0  0
   -5.9270    1.0828    2.2015 C   0  0  0  0  0  0  0  0  0  0  0  0
   -6.5651    1.6982    0.9584 C   0  0  2  0  0  0  0  0  0  0  0  0
   -7.7847    1.0890    0.7109 F   0  0  0  0  0  0  0  0  0  0  0  0
   -5.5993    1.4074   -0.1849 C   0  0  0  0  0  0  0  0  0  0  0  0
   -4.7266    0.3459    0.2917 N   0  0  0  0  0  0  0  0  0  0  0  0
   -3.7396   -0.2729   -0.5584 C   0  0  0  0  0  0  0  0  0  0  0  0
   -3.8067   -0.1012   -1.8060 O   0  0  0  0  0  0  0  0  0  0  0  0
   -2.6117   -1.1140   -0.0043 C   0  0  0  0  0  0  0  0  0  0  0  0
   -1.2638   -0.3494    0.1837 C   0  0  0  0  0  0  0  0  0  0  0  0
   -1.4443    0.8152    1.1844 C   0  0  0  0  0  0  0  0  0  0  0  0
   -0.7765    0.2143   -1.1721 C   0  0  0  0  0  0  0  0  0  0  0  0
   -0.2250   -1.3715    0.7389 C   0  0  0  0  0  0  0  0  0  0  0  0
    1.1434   -0.7946    0.9879 C   0  0  0  0  0  0  0  0  0  0  0  0
    1.3982   -0.2539    2.0985 O   0  0  0  0  0  0  0  0  0  0  0  0
    2.1494   -0.8548   -0.0309 N   0  0  0  0  0  0  0  0  0  0  0  0
    3.4467   -0.2086    0.1400 C   0  0  1  0  0  0  0  0  0  0  0  0
    4.3936   -1.0064    1.0320 C   0  0  0  0  0  0  0  0  0  0  0  0
    4.6040   -0.9835   -0.4791 C   0  0  2  0  0  0  0  0  0  0  0  0
    5.7844   -0.1763   -0.9900 C   0  0  0  0  0  0  0  0  0  0  0  0
    6.1905    1.0557   -0.4302 C   0  0  0  0  0  0  0  0  0  0  0  0
    7.2873    1.7450   -0.9560 C   0  0  0  0  0  0  0  0  0  0  0  0
    7.9921    1.2212   -2.0409 C   0  0  0  0  0  0  0  0  0  0  0  0
    7.6022    0.0039   -2.6044 C   0  0  0  0  0  0  0  0  0  0  0  0
    8.4884   -0.6543   -3.9678 Cl  0  0  0  0  0  0  0  0  0  0  0  0
    6.5053   -0.6900   -2.0818 C   0  0  0  0  0  0  0  0  0  0  0  0
   -6.5349   -3.3837    1.9036 H   0  0  0  0  0  0  0  0  0  0  0  0
   -4.0363    0.0216    2.2765 H   0  0  0  0  0  0  0  0  0  0  0  0
   -6.6928    0.6930    2.9092 H   0  0  0  0  0  0  0  0  0  0  0  0
   -5.3366    1.8661    2.7266 H   0  0  0  0  0  0  0  0  0  0  0  0
   -6.7225    2.7913    1.0859 H   0  0  0  0  0  0  0  0  0  0  0  0
   -6.1488    1.0817   -1.0949 H   0  0  0  0  0  0  0  0  0  0  0  0
   -4.9915    2.3087   -0.4174 H   0  0  0  0  0  0  0  0  0  0  0  0
   -2.4528   -1.9658   -0.7022 H   0  0  0  0  0  0  0  0  0  0  0  0
   -2.9181   -1.5740    0.9575 H   0  0  0  0  0  0  0  0  0  0  0  0
   -1.7046    0.4286    2.1922 H   0  0  0  0  0  0  0  0  0  0  0  0
   -0.5111    1.4105    1.2732 H   0  0  0  0  0  0  0  0  0  0  0  0
   -2.2429    1.5106    0.8507 H   0  0  0  0  0  0  0  0  0  0  0  0
   -1.4889    0.9650   -1.5726 H   0  0  0  0  0  0  0  0  0  0  0  0
    0.1993    0.7319   -1.0629 H   0  0  0  0  0  0  0  0  0  0  0  0
   -0.6618   -0.6021   -1.9171 H   0  0  0  0  0  0  0  0  0  0  0  0
   -0.1244   -2.2240    0.0316 H   0  0  0  0  0  0  0  0  0  0  0  0
   -0.5990   -1.8015    1.6946 H   0  0  0  0  0  0  0  0  0  0  0  0
    1.9136   -1.2736   -0.9588 H   0  0  0  0  0  0  0  0  0  0  0  0
    3.4770    0.8965    0.2341 H   0  0  0  0  0  0  0  0  0  0  0  0
    5.0851   -0.3880    1.6402 H   0  0  0  0  0  0  0  0  0  0  0  0
    3.9816   -1.9640    1.4167 H   0  0  0  0  0  0  0  0  0  0  0  0
    4.3354   -1.9348   -0.9891 H   0  0  0  0  0  0  0  0  0  0  0  0
    5.6730    1.4925    0.4119 H   0  0  0  0  0  0  0  0  0  0  0  0
    7.5917    2.6879   -0.5202 H   0  0  0  0  0  0  0  0  0  0  0  0
    8.8402    1.7613   -2.4420 H   0  0  0  0  0  0  0  0  0  0  0  0
    6.2148   -1.6327   -2.5298 H   0  0  0  0  0  0  0  0  0  0  0  0
  1  2  3  0
  2  3  1  0
  3  4  1  0
  4  5  1  0
  5  6  1  0
  5  7  1  0
  7  8  1  0
  8  9  1  0
  9 10  2  0
  9 11  1  0
 11 12  1  0
 12 13  1  0
 12 14  1  0
 12 15  1  0
 15 16  1  0
 16 17  2  0
 16 18  1  0
 18 19  1  0
 19 20  1  0
 20 21  1  0
 21 22  1  0
 22 23  2  0
 23 24  1  0
 24 25  2  0
 25 26  1  0
 26 27  1  0
 26 28  2  0
  8  3  1  0
 21 19  1  0
 28 22  1  0
  1 29  1  0
  3 30  1  1
  4 31  1  0
  4 32  1  0
  5 33  1  1
  7 34  1  0
  7 35  1  0
 11 36  1  0
 11 37  1  0
 13 38  1  0
 13 39  1  0
 13 40  1  0
 14 41  1  0
 14 42  1  0
 14 43  1  0
 15 44  1  0
 15 45  1  0
 18 46  1  0
 19 47  1  1
 20 48  1  0
 20 49  1  0
 21 50  1  6
 23 51  1  0
 24 52  1  0
 25 53  1  0
 28 54  1  0
M  END
$$$$
