
     RDKit          3D

 40 42  0  0  0  0  0  0  0  0999 V2000
   -3.1925    2.9456   -0.5788 C   0  0  0  0  0  0  0  0  0  0  0  0
   -2.6609    1.5747   -0.4554 N   0  0  0  0  0  0  0  0  0  0  0  0
   -1.3307    1.3834   -0.1903 C   0  0  0  0  0  0  0  0  0  0  0  0
   -0.5828    2.3895   -0.0444 O   0  0  0  0  0  0  0  0  0  0  0  0
   -0.8034    0.0733   -0.0717 C   0  0  0  0  0  0  0  0  0  0  0  0
    0.5606   -0.2181    0.2413 C   0  0  0  0  0  0  0  0  0  0  0  0
    1.5596    0.8687    0.3936 C   0  0  0  0  0  0  0  0  0  0  0  0
    1.8420    1.3704    1.6745 C   0  0  0  0  0  0  0  0  0  0  0  0
    2.7795    2.3946    1.8396 C   0  0  0  0  0  0  0  0  0  0  0  0
    3.1320    3.0106    3.4435 Cl  0  0  0  0  0  0  0  0  0  0  0  0
    3.4351    2.9277    0.7260 C   0  0  0  0  0  0  0  0  0  0  0  0
    3.1518    2.4420   -0.5532 C   0  0  0  0  0  0  0  0  0  0  0  0
    2.2149    1.4169   -0.7278 C   0  0  0  0  0  0  0  0  0  0  0  0
    1.8620    0.8580   -2.3594 Cl  0  0  0  0  0  0  0  0  0  0  0  0
    0.9782   -1.5687    0.4011 C   0  0  0  0  0  0  0  0  0  0  0  0
    2.4174   -1.9125    0.7699 C   0  0  0  0  0  0  0  0  0  0  0  0
    3.2196   -2.2029   -0.4167 N   0  0  0  0  0  0  0  0  0  0  0  0
    0.0334   -2.5961    0.1810 C   0  0  0  0  0  0  0  0  0  0  0  0
    0.3740   -3.9861    0.2660 N   0  0  0  0  0  0  0  0  0  0  0  0
   -1.2430   -2.2760   -0.1355 N   0  0  0  0  0  0  0  0  0  0  0  0
   -1.6936   -1.0015   -0.2671 C   0  0  0  0  0  0  0  0  0  0  0  0
   -3.0031   -0.7763   -0.6007 N   0  0  0  0  0  0  0  0  0  0  0  0
   -3.9105   -1.9219   -0.8067 C   0  0  0  0  0  0  0  0  0  0  0  0
   -3.4849    0.5036   -0.6778 C   0  0  0  0  0  0  0  0  0  0  0  0
   -4.7024    0.6994   -0.9566 O   0  0  0  0  0  0  0  0  0  0  0  0
   -4.2653    2.9942   -0.2947 H   0  0  0  0  0  0  0  0  0  0  0  0
   -3.0765    3.2969   -1.6258 H   0  0  0  0  0  0  0  0  0  0  0  0
   -2.6648    3.6471    0.1022 H   0  0  0  0  0  0  0  0  0  0  0  0
    1.3362    0.9610    2.5407 H   0  0  0  0  0  0  0  0  0  0  0  0
    4.1609    3.7214    0.8498 H   0  0  0  0  0  0  0  0  0  0  0  0
    3.6583    2.8673   -1.4102 H   0  0  0  0  0  0  0  0  0  0  0  0
    2.9045   -1.0968    1.3404 H   0  0  0  0  0  0  0  0  0  0  0  0
    2.4510   -2.7770    1.4637 H   0  0  0  0  0  0  0  0  0  0  0  0
    3.2726   -1.3405   -1.0040 H   0  0  0  0  0  0  0  0  0  0  0  0
    2.7450   -2.9406   -0.9853 H   0  0  0  0  0  0  0  0  0  0  0  0
   -0.3725   -4.7053    0.1396 H   0  0  0  0  0  0  0  0  0  0  0  0
    1.3484   -4.3334    0.3903 H   0  0  0  0  0  0  0  0  0  0  0  0
   -4.2581   -2.3031    0.1766 H   0  0  0  0  0  0  0  0  0  0  0  0
   -3.3975   -2.7399   -1.3566 H   0  0  0  0  0  0  0  0  0  0  0  0
   -4.7944   -1.6494   -1.4212 H   0  0  0  0  0  0  0  0  0  0  0  0
  1  2  1  0
  2  3  1  0
  3  4  2  0
  3  5  1  0
  5  6  2  0
  6  7  1  0
  7  8  2  0
  8  9  1  0
  9 10  1  0
  9 11  2  0
 11 12  1  0
 12 13  2  0
 13 14  1  0
  6 15  1  0
 15 16  1  0
 16 17  1  0
 15 18  2  0
 18 19  1  0
 18 20  1  0
 20 21  2  0
 21 22  1  0
 22 23  1  0
 22 24  1  0
 24 25  2  0
 24  2  1  0
 21  5  1  0
 13  7  1  0
  1 26  1  0
  1 27  1  0
  1 28  1  0
  8 29  1  0
 11 30  1  0
 12 31  1  0
 16 32  1  0
 16 33  1  0
 17 34  1  0
 17 35  1  0
 19 36  1  0
 19 37  1  0
 23 38  1  0
 23 39  1  0
 23 40  1  0
M  END
$$$$
