
     RDKit          3D

 61 65  0  0  0  0  0  0  0  0999 V2000
   -4.3971   -1.6087    2.5976 O   0  0  0  0  0  0  0  0  0  0  0  0
   -5.2837   -1.3292    1.7444 C   0  0  0  0  0  0  0  0  0  0  0  0
   -5.1483   -0.1460    0.9390 N   0  0  0  0  0  0  0  0  0  0  0  0
   -3.8930    0.5088    0.6854 C   0  0  0  0  0  0  0  0  0  0  0  0
   -2.6904   -0.2157    0.6067 C   0  0  0  0  0  0  0  0  0  0  0  0
   -1.4862    0.4406    0.3358 C   0  0  0  0  0  0  0  0  0  0  0  0
   -1.4680    1.8268    0.1081 C   0  0  0  0  0  0  0  0  0  0  0  0
   -0.2059    2.5526   -0.1434 C   0  0  0  0  0  0  0  0  0  0  0  0
    0.7231    2.1625   -1.0306 C   0  0  0  0  0  0  0  0  0  0  0  0
    0.5379    0.7707   -2.1621 S   0  0  0  0  0  0  0  0  0  0  0  0
    2.1167    1.2262   -2.8824 C   0  0  0  0  0  0  0  0  0  0  0  0
    2.6319    0.5593   -3.8184 O   0  0  0  0  0  0  0  0  0  0  0  0
    2.7677    2.3587   -2.3074 N   0  0  0  0  0  0  0  0  0  0  0  0
    4.0601    2.8356   -2.7260 C   0  0  0  0  0  0  0  0  0  0  0  0
    4.3764    2.7707   -3.9448 O   0  0  0  0  0  0  0  0  0  0  0  0
    5.0912    3.3346   -1.7374 C   0  0  0  0  0  0  0  0  0  0  0  0
    5.8084    2.2480   -1.0361 N   0  0  0  0  0  0  0  0  0  0  0  0
    4.9270    1.4484   -0.1531 C   0  0  0  0  0  0  0  0  0  0  0  0
    5.7756    0.5738    0.7864 C   0  0  0  0  0  0  0  0  0  0  0  0
    6.8470   -0.0668    0.0267 N   0  0  0  0  0  0  0  0  0  0  0  0
    7.2815    0.3245   -1.1774 C   0  0  0  0  0  0  0  0  0  0  0  0
    8.3210   -0.4188   -1.6001 N   0  0  0  0  0  0  0  0  0  0  0  0
    8.5825   -1.2864   -0.6290 N   0  0  0  0  0  0  0  0  0  0  0  0
    7.6915   -1.0597    0.3604 C   0  0  0  0  0  0  0  0  0  0  0  0
    7.6451   -1.8318    1.6429 C   0  0  0  0  0  0  0  0  0  0  0  0
    6.4661   -2.5501    1.7075 F   0  0  0  0  0  0  0  0  0  0  0  0
    8.7125   -2.7089    1.7108 F   0  0  0  0  0  0  0  0  0  0  0  0
    7.7104   -0.9606    2.7142 F   0  0  0  0  0  0  0  0  0  0  0  0
    6.5924    1.3955   -1.9594 C   0  0  0  0  0  0  0  0  0  0  0  0
    1.9569    2.9094   -1.2749 C   0  0  0  0  0  0  0  0  0  0  0  0
    2.2490    3.9755   -0.6697 O   0  0  0  0  0  0  0  0  0  0  0  0
   -2.6657    2.5499    0.1965 C   0  0  0  0  0  0  0  0  0  0  0  0
   -3.8702    1.8938    0.4657 C   0  0  0  0  0  0  0  0  0  0  0  0
   -6.4789   -2.1994    1.6222 C   0  0  0  0  0  0  0  0  0  0  0  0
   -7.2799   -2.1678    0.4674 C   0  0  0  0  0  0  0  0  0  0  0  0
   -8.4044   -2.9972    0.3545 C   0  0  0  0  0  0  0  0  0  0  0  0
   -9.1907   -2.9547   -0.7961 O   0  0  0  0  0  0  0  0  0  0  0  0
   -8.7372   -3.8740    1.4006 C   0  0  0  0  0  0  0  0  0  0  0  0
   -9.8549   -4.7043    1.3054 O   0  0  0  0  0  0  0  0  0  0  0  0
   -7.9359   -3.9181    2.5535 C   0  0  0  0  0  0  0  0  0  0  0  0
   -8.2378   -4.7802    3.6076 O   0  0  0  0  0  0  0  0  0  0  0  0
   -6.8147   -3.0886    2.6577 C   0  0  0  0  0  0  0  0  0  0  0  0
   -6.0206    0.3283    0.6133 H   0  0  0  0  0  0  0  0  0  0  0  0
   -2.6802   -1.2892    0.7402 H   0  0  0  0  0  0  0  0  0  0  0  0
   -0.5685   -0.1334    0.3187 H   0  0  0  0  0  0  0  0  0  0  0  0
   -0.0603    3.4838    0.3914 H   0  0  0  0  0  0  0  0  0  0  0  0
    5.8321    3.9632   -2.2788 H   0  0  0  0  0  0  0  0  0  0  0  0
    4.6339    4.0155   -0.9943 H   0  0  0  0  0  0  0  0  0  0  0  0
    4.2661    0.7879   -0.7567 H   0  0  0  0  0  0  0  0  0  0  0  0
    4.2888    2.1143    0.4682 H   0  0  0  0  0  0  0  0  0  0  0  0
    5.1323   -0.1961    1.2633 H   0  0  0  0  0  0  0  0  0  0  0  0
    6.2239    1.2106    1.5790 H   0  0  0  0  0  0  0  0  0  0  0  0
    7.3559    2.0087   -2.4845 H   0  0  0  0  0  0  0  0  0  0  0  0
    5.9338    0.9078   -2.7102 H   0  0  0  0  0  0  0  0  0  0  0  0
   -2.6696    3.6225    0.0437 H   0  0  0  0  0  0  0  0  0  0  0  0
   -4.7870    2.4679    0.5152 H   0  0  0  0  0  0  0  0  0  0  0  0
   -7.0274   -1.5164   -0.3591 H   0  0  0  0  0  0  0  0  0  0  0  0
   -8.9735   -2.3324   -1.5658 H   0  0  0  0  0  0  0  0  0  0  0  0
  -10.4593   -4.7052    0.4926 H   0  0  0  0  0  0  0  0  0  0  0  0
   -9.0373   -5.4016    3.5838 H   0  0  0  0  0  0  0  0  0  0  0  0
   -6.2123   -3.1353    3.5568 H   0  0  0  0  0  0  0  0  0  0  0  0
  1  2  2  0
  2  3  1  0
  3  4  1  0
  4  5  2  0
  5  6  1  0
  6  7  2  0
  7  8  1  0
  8  9  2  0
  9 10  1  0
 10 11  1  0
 11 12  2  0
 11 13  1  0
 13 14  1  0
 14 15  2  0
 14 16  1  0
 16 17  1  0
 17 18  1  0
 18 19  1  0
 19 20  1  0
 20 21  1  0
 21 22  2  0
 22 23  1  0
 23 24  2  0
 24 25  1  0
 25 26  1  0
 25 27  1  0
 25 28  1  0
 21 29  1  0
 13 30  1  0
 30 31  2  0
  7 32  1  0
 32 33  2  0
  2 34  1  0
 34 35  2  0
 35 36  1  0
 36 37  1  0
 36 38  2  0
 38 39  1  0
 38 40  1  0
 40 41  1  0
 40 42  2  0
 33  4  1  0
 42 34  1  0
 30  9  1  0
 29 17  1  0
 24 20  1  0
  3 43  1  0
  5 44  1  0
  6 45  1  0
  8 46  1  0
 16 47  1  0
 16 48  1  0
 18 49  1  0
 18 50  1  0
 19 51  1  0
 19 52  1  0
 29 53  1  0
 29 54  1  0
 32 55  1  0
 33 56  1  0
 35 57  1  0
 37 58  1  0
 39 59  1  0
 41 60  1  0
 42 61  1  0
M  END
$$$$
