
     RDKit          3D

 41 42  0  0  0  0  0  0  0  0999 V2000
    4.4403   -1.6613   -0.5525 C   0  0  0  0  0  0  0  0  0  0  0  0
    3.8219   -0.5346    0.0297 O   0  0  0  0  0  0  0  0  0  0  0  0
    2.8261   -0.0055   -0.8331 C   0  0  2  0  0  0  0  0  0  0  0  0
    2.8550    1.5269   -0.7333 C   0  0  0  0  0  0  0  0  0  0  0  0
    2.5526    2.0271    0.6938 C   0  0  0  0  0  0  0  0  0  0  0  0
    1.5942    1.1079    1.4773 C   0  0  0  0  0  0  0  0  0  0  0  0
    0.6382    0.3466    0.5385 C   0  0  2  0  0  0  0  0  0  0  0  0
   -0.4641   -0.4019    1.3387 C   0  0  2  0  0  0  0  0  0  0  0  0
    0.1115   -1.3189    2.3313 N   0  0  0  0  0  0  0  0  0  0  0  0
   -1.4392   -1.1141    0.4179 C   0  0  0  0  0  0  0  0  0  0  0  0
   -1.1839   -2.2911    0.0415 O   0  0  0  0  0  0  0  0  0  0  0  0
   -2.6211   -0.4591   -0.0818 N   0  0  0  0  0  0  0  0  0  0  0  0
   -3.5413   -1.1039   -1.0029 C   0  0  0  0  0  0  0  0  0  0  0  0
   -4.7216   -0.1521   -1.1420 C   0  0  0  0  0  0  0  0  0  0  0  0
   -4.2353    1.1954   -0.6168 C   0  0  0  0  0  0  0  0  0  0  0  0
   -3.0366    0.8889    0.2708 C   0  0  0  0  0  0  0  0  0  0  0  0
    1.4314   -0.5633   -0.4431 C   0  0  0  0  0  0  0  0  0  0  0  0
    5.0437   -1.3632   -1.4379 H   0  0  0  0  0  0  0  0  0  0  0  0
    3.6949   -2.4374   -0.8355 H   0  0  0  0  0  0  0  0  0  0  0  0
    5.1298   -2.1108    0.1910 H   0  0  0  0  0  0  0  0  0  0  0  0
    3.0168   -0.2527   -1.9068 H   0  0  0  0  0  0  0  0  0  0  0  0
    3.8509    1.9034   -1.0534 H   0  0  0  0  0  0  0  0  0  0  0  0
    2.1026    1.9474   -1.4370 H   0  0  0  0  0  0  0  0  0  0  0  0
    3.5039    2.1177    1.2623 H   0  0  0  0  0  0  0  0  0  0  0  0
    2.1125    3.0459    0.6252 H   0  0  0  0  0  0  0  0  0  0  0  0
    1.0140    1.7248    2.1981 H   0  0  0  0  0  0  0  0  0  0  0  0
    2.1906    0.3772    2.0671 H   0  0  0  0  0  0  0  0  0  0  0  0
    0.1189    1.1155   -0.0771 H   0  0  0  0  0  0  0  0  0  0  0  0
   -1.0281    0.3673    1.9090 H   0  0  0  0  0  0  0  0  0  0  0  0
   -0.6614   -1.6745    2.9404 H   0  0  0  0  0  0  0  0  0  0  0  0
    0.5389   -2.1509    1.8666 H   0  0  0  0  0  0  0  0  0  0  0  0
   -3.0416   -1.2527   -1.9846 H   0  0  0  0  0  0  0  0  0  0  0  0
   -3.8767   -2.0829   -0.5964 H   0  0  0  0  0  0  0  0  0  0  0  0
   -5.0590   -0.0766   -2.1985 H   0  0  0  0  0  0  0  0  0  0  0  0
   -5.5664   -0.5110   -0.5136 H   0  0  0  0  0  0  0  0  0  0  0  0
   -3.9139    1.8310   -1.4714 H   0  0  0  0  0  0  0  0  0  0  0  0
   -5.0346    1.7218   -0.0513 H   0  0  0  0  0  0  0  0  0  0  0  0
   -3.3316    0.9206    1.3420 H   0  0  0  0  0  0  0  0  0  0  0  0
   -2.2205    1.6168    0.0773 H   0  0  0  0  0  0  0  0  0  0  0  0
    0.8257   -0.6834   -1.3683 H   0  0  0  0  0  0  0  0  0  0  0  0
    1.5628   -1.5806   -0.0240 H   0  0  0  0  0  0  0  0  0  0  0  0
  1  2  1  0
  2  3  1  0
  3  4  1  0
  4  5  1  0
  5  6  1  0
  6  7  1  0
  7  8  1  0
  8  9  1  0
  8 10  1  0
 10 11  2  0
 10 12  1  0
 12 13  1  0
 13 14  1  0
 14 15  1  0
 15 16  1  0
  7 17  1  0
 17  3  1  0
 16 12  1  0
  1 18  1  0
  1 19  1  0
  1 20  1  0
  3 21  1  6
  4 22  1  0
  4 23  1  0
  5 24  1  0
  5 25  1  0
  6 26  1  0
  6 27  1  0
  7 28  1  6
  8 29  1  1
  9 30  1  0
  9 31  1  0
 13 32  1  0
 13 33  1  0
 14 34  1  0
 14 35  1  0
 15 36  1  0
 15 37  1  0
 16 38  1  0
 16 39  1  0
 17 40  1  0
 17 41  1  0
M  END
$$$$
