
     RDKit          3D

 62 65  0  0  0  0  0  0  0  0999 V2000
   -1.6269    3.0216   -1.6362 C   0  0  0  0  0  0  0  0  0  0  0  0
   -2.1341    2.3117   -0.4562 N   0  0  0  0  0  0  0  0  0  0  0  0
   -3.1717    2.9378    0.3719 C   0  0  0  0  0  0  0  0  0  0  0  0
   -1.6032    1.0276   -0.0460 C   0  0  0  0  0  0  0  0  0  0  0  0
   -1.9313    0.5712    1.0832 O   0  0  0  0  0  0  0  0  0  0  0  0
   -0.6522    0.2080   -0.9169 C   0  0  1  0  0  0  0  0  0  0  0  0
    0.7250   -0.0134   -0.2041 C   0  0  1  0  0  0  0  0  0  0  0  0
    0.7107   -1.0953    0.8997 C   0  0  0  0  0  0  0  0  0  0  0  0
    2.0701   -1.1405    1.6027 C   0  0  0  0  0  0  0  0  0  0  0  0
    3.2252   -1.4808    0.6256 C   0  0  2  0  0  0  0  0  0  0  0  0
    4.5054   -0.7162    0.9353 C   0  0  0  0  0  0  0  0  0  0  0  0
    5.7105   -1.4179    1.1583 C   0  0  0  0  0  0  0  0  0  0  0  0
    6.8991   -0.7095    1.4163 C   0  0  0  0  0  0  0  0  0  0  0  0
    6.8969    0.6916    1.4472 C   0  0  0  0  0  0  0  0  0  0  0  0
    5.6874    1.3366    1.2138 C   0  0  0  0  0  0  0  0  0  0  0  0
    5.4835    2.6659    1.1987 N   0  0  0  0  0  0  0  0  0  0  0  0
    4.1553    2.7304    0.9291 C   0  0  0  0  0  0  0  0  0  0  0  0
    3.5850    1.5122    0.7888 N   0  0  0  0  0  0  0  0  0  0  0  0
    4.5645    0.6485    0.9701 N   0  0  0  0  0  0  0  0  0  0  0  0
    2.8424   -1.3902   -0.8733 C   0  0  0  0  0  0  0  0  0  0  0  0
    1.8784   -0.2442   -1.2302 C   0  0  0  0  0  0  0  0  0  0  0  0
   -1.2946   -1.0994   -1.5114 C   0  0  2  0  0  0  0  0  0  0  0  0
   -1.9241   -0.8545   -2.8139 N   0  0  0  0  0  0  0  0  0  0  0  0
   -2.2513   -1.8351   -0.5827 C   0  0  0  0  0  0  0  0  0  0  0  0
   -1.8354   -2.8775   -0.0073 O   0  0  0  0  0  0  0  0  0  0  0  0
   -3.5927   -1.3834   -0.2987 N   0  0  0  0  0  0  0  0  0  0  0  0
   -4.4351   -0.6009   -1.1908 C   0  0  0  0  0  0  0  0  0  0  0  0
   -5.8183   -0.5879   -0.5518 C   0  0  0  0  0  0  0  0  0  0  0  0
   -5.6064   -1.0155    0.8976 C   0  0  0  0  0  0  0  0  0  0  0  0
   -6.6567   -1.8000    1.3439 F   0  0  0  0  0  0  0  0  0  0  0  0
   -5.4909    0.1042    1.7055 F   0  0  0  0  0  0  0  0  0  0  0  0
   -4.2990   -1.7961    0.9031 C   0  0  0  0  0  0  0  0  0  0  0  0
   -2.0778    4.0310   -1.7355 H   0  0  0  0  0  0  0  0  0  0  0  0
   -0.5275    3.1551   -1.5522 H   0  0  0  0  0  0  0  0  0  0  0  0
   -1.8722    2.4523   -2.5562 H   0  0  0  0  0  0  0  0  0  0  0  0
   -2.7685    3.1431    1.3860 H   0  0  0  0  0  0  0  0  0  0  0  0
   -4.0449    2.2575    0.4584 H   0  0  0  0  0  0  0  0  0  0  0  0
   -3.5280    3.8957   -0.0614 H   0  0  0  0  0  0  0  0  0  0  0  0
   -0.3940    0.8324   -1.7933 H   0  0  0  0  0  0  0  0  0  0  0  0
    0.9621    0.9470    0.3088 H   0  0  0  0  0  0  0  0  0  0  0  0
    0.5029   -2.0959    0.4702 H   0  0  0  0  0  0  0  0  0  0  0  0
   -0.0656   -0.8790    1.6600 H   0  0  0  0  0  0  0  0  0  0  0  0
    2.0290   -1.9100    2.4050 H   0  0  0  0  0  0  0  0  0  0  0  0
    2.2363   -0.1727    2.1203 H   0  0  0  0  0  0  0  0  0  0  0  0
    3.4412   -2.5607    0.7954 H   0  0  0  0  0  0  0  0  0  0  0  0
    5.7366   -2.5000    1.1311 H   0  0  0  0  0  0  0  0  0  0  0  0
    7.8210   -1.2495    1.5890 H   0  0  0  0  0  0  0  0  0  0  0  0
    7.8037    1.2491    1.6434 H   0  0  0  0  0  0  0  0  0  0  0  0
    3.6089    3.6591    0.8364 H   0  0  0  0  0  0  0  0  0  0  0  0
    2.3470   -2.3439   -1.1637 H   0  0  0  0  0  0  0  0  0  0  0  0
    3.7558   -1.3145   -1.5035 H   0  0  0  0  0  0  0  0  0  0  0  0
    1.4715   -0.4662   -2.2407 H   0  0  0  0  0  0  0  0  0  0  0  0
    2.4583    0.6943   -1.3529 H   0  0  0  0  0  0  0  0  0  0  0  0
   -0.4606   -1.8116   -1.7074 H   0  0  0  0  0  0  0  0  0  0  0  0
   -1.1739   -0.8055   -3.5419 H   0  0  0  0  0  0  0  0  0  0  0  0
   -2.3882    0.0807   -2.8199 H   0  0  0  0  0  0  0  0  0  0  0  0
   -4.4872   -1.0758   -2.1939 H   0  0  0  0  0  0  0  0  0  0  0  0
   -4.0502    0.4352   -1.2705 H   0  0  0  0  0  0  0  0  0  0  0  0
   -6.2869    0.4183   -0.6180 H   0  0  0  0  0  0  0  0  0  0  0  0
   -6.4716   -1.3252   -1.0689 H   0  0  0  0  0  0  0  0  0  0  0  0
   -4.4939   -2.8900    0.8604 H   0  0  0  0  0  0  0  0  0  0  0  0
   -3.6986   -1.5592    1.8083 H   0  0  0  0  0  0  0  0  0  0  0  0
  1  2  1  0
  2  3  1  0
  2  4  1  0
  4  5  2  0
  4  6  1  0
  6  7  1  0
  7  8  1  0
  8  9  1  0
  9 10  1  0
 10 11  1  0
 11 12  2  0
 12 13  1  0
 13 14  2  0
 14 15  1  0
 15 16  2  0
 16 17  1  0
 17 18  2  0
 18 19  1  0
 10 20  1  0
 20 21  1  0
  6 22  1  0
 22 23  1  0
 22 24  1  0
 24 25  2  0
 24 26  1  0
 26 27  1  0
 27 28  1  0
 28 29  1  0
 29 30  1  0
 29 31  1  0
 29 32  1  0
 21  7  1  0
 32 26  1  0
 19 11  1  0
 19 15  1  0
  1 33  1  0
  1 34  1  0
  1 35  1  0
  3 36  1  0
  3 37  1  0
  3 38  1  0
  6 39  1  6
  7 40  1  1
  8 41  1  0
  8 42  1  0
  9 43  1  0
  9 44  1  0
 10 45  1  1
 12 46  1  0
 13 47  1  0
 14 48  1  0
 17 49  1  0
 20 50  1  0
 20 51  1  0
 21 52  1  0
 21 53  1  0
 22 54  1  6
 23 55  1  0
 23 56  1  0
 27 57  1  0
 27 58  1  0
 28 59  1  0
 28 60  1  0
 32 61  1  0
 32 62  1  0
M  END
$$$$
