
     RDKit          3D

 15 16  0  0  0  0  0  0  0  0999 V2000
    2.9990   -0.7183   -0.1193 N   0  0  0  0  0  0  0  0  0  0  0  0
    1.6732   -0.2100    0.0058 C   0  0  0  0  0  0  0  0  0  0  0  0
    1.4710    1.0636    0.4787 N   0  0  0  0  0  0  0  0  0  0  0  0
    0.2148    1.5835    0.6118 C   0  0  0  0  0  0  0  0  0  0  0  0
   -0.0172    3.2117    1.2177 Cl  0  0  0  0  0  0  0  0  0  0  0  0
   -0.8562    0.7782    0.2515 C   0  0  0  0  0  0  0  0  0  0  0  0
   -2.1746    1.0417    0.2841 N   0  0  0  0  0  0  0  0  0  0  0  0
   -2.7183   -0.1166   -0.1831 C   0  0  0  0  0  0  0  0  0  0  0  0
   -1.7983   -1.0641   -0.4956 N   0  0  0  0  0  0  0  0  0  0  0  0
   -0.6355   -0.4716   -0.2114 C   0  0  0  0  0  0  0  0  0  0  0  0
    0.6070   -0.9931   -0.3458 N   0  0  0  0  0  0  0  0  0  0  0  0
    3.1628   -1.6852   -0.4778 H   0  0  0  0  0  0  0  0  0  0  0  0
    3.8184   -0.1283    0.1464 H   0  0  0  0  0  0  0  0  0  0  0  0
   -3.7841   -0.2662   -0.2944 H   0  0  0  0  0  0  0  0  0  0  0  0
   -1.9620   -2.0253   -0.8687 H   0  0  0  0  0  0  0  0  0  0  0  0
  1  2  1  0
  2  3  2  0
  3  4  1  0
  4  5  1  0
  4  6  2  0
  6  7  1  0
  7  8  2  0
  8  9  1  0
  9 10  1  0
 10 11  2  0
 11  2  1  0
 10  6  1  0
  1 12  1  0
  1 13  1  0
  8 14  1  0
  9 15  1  0
M  END
$$$$
