
     RDKit          3D

 71 72  0  0  0  0  0  0  0  0999 V2000
    7.3723    1.2852   -2.9034 C   0  0  0  0  0  0  0  0  0  0  0  0
    7.1904    1.5572   -1.5193 O   0  0  0  0  0  0  0  0  0  0  0  0
    6.5148    2.6904   -1.0577 C   0  0  0  0  0  0  0  0  0  0  0  0
    6.0268    3.5244   -1.8687 O   0  0  0  0  0  0  0  0  0  0  0  0
    6.3264    2.8857    0.4121 C   0  0  0  0  0  0  0  0  0  0  0  0
    5.1190    2.1222    0.8799 C   0  0  0  0  0  0  0  0  0  0  0  0
    3.8486    2.7183    0.8480 C   0  0  0  0  0  0  0  0  0  0  0  0
    2.7200    1.9945    1.2423 C   0  0  0  0  0  0  0  0  0  0  0  0
    2.8451    0.6636    1.6693 C   0  0  0  0  0  0  0  0  0  0  0  0
    1.6192   -0.1210    2.0480 C   0  0  0  0  0  0  0  0  0  0  0  0
    0.8182   -0.3976    0.8591 N   0  0  0  0  0  0  0  0  0  0  0  0
    1.2238   -1.3506   -0.1356 C   0  0  0  0  0  0  0  0  0  0  0  0
    2.2257   -2.0888    0.0666 O   0  0  0  0  0  0  0  0  0  0  0  0
    0.4910   -1.4512   -1.4486 C   0  0  2  0  0  0  0  0  0  0  0  0
    0.7879   -0.2476   -2.3452 C   0  0  0  0  0  0  0  0  0  0  0  0
   -0.4433    0.6504   -2.2631 C   0  0  0  0  0  0  0  0  0  0  0  0
   -1.5806   -0.2385   -1.7754 C   0  0  0  0  0  0  0  0  0  0  0  0
   -0.9494   -1.4332   -1.2347 N   0  0  0  0  0  0  0  0  0  0  0  0
   -1.6640   -2.5332   -0.6371 C   0  0  0  0  0  0  0  0  0  0  0  0
   -1.0563   -3.6117   -0.3963 O   0  0  0  0  0  0  0  0  0  0  0  0
   -3.1106   -2.4191   -0.2350 C   0  0  0  0  0  0  0  0  0  0  0  0
   -3.2472   -2.1901    1.2834 C   0  0  0  0  0  0  0  0  0  0  0  0
   -2.5936   -0.9389    1.6809 N   0  0  0  0  0  0  0  0  0  0  0  0
   -4.7204   -2.2532    1.7601 C   0  0  0  0  0  0  0  0  0  0  0  0
   -5.6048   -1.1751    1.1738 C   0  0  0  0  0  0  0  0  0  0  0  0
   -5.7176    0.0687    1.8202 C   0  0  0  0  0  0  0  0  0  0  0  0
   -6.5206    1.0769    1.2796 C   0  0  0  0  0  0  0  0  0  0  0  0
   -7.2225    0.8524    0.0934 C   0  0  0  0  0  0  0  0  0  0  0  0
   -7.1261   -0.3823   -0.5525 C   0  0  0  0  0  0  0  0  0  0  0  0
   -6.3243   -1.3960   -0.0173 C   0  0  0  0  0  0  0  0  0  0  0  0
   -6.2551   -2.5901   -0.6584 F   0  0  0  0  0  0  0  0  0  0  0  0
    4.1129    0.0617    1.6854 C   0  0  0  0  0  0  0  0  0  0  0  0
    5.2418    0.7855    1.2912 C   0  0  0  0  0  0  0  0  0  0  0  0
    0.7621   -0.5389   -1.4447 O   0  0  0  0  0  0  0  0  0  0  0  0
    0.4725   -0.1031   -0.2983 C   0  0  0  0  0  0  0  0  0  0  0  0
    1.4797    0.3647    0.5404 O   0  0  0  0  0  0  0  0  0  0  0  0
   -0.9555   -0.0334    0.1364 C   0  0  0  0  0  0  0  0  0  0  0  0
   -1.6486   -1.1320   -0.3390 F   0  0  0  0  0  0  0  0  0  0  0  0
   -1.5310    1.1198   -0.3626 F   0  0  0  0  0  0  0  0  0  0  0  0
   -1.0292   -0.0180    1.5173 F   0  0  0  0  0  0  0  0  0  0  0  0
    6.3858    1.1809   -3.4028 H   0  0  0  0  0  0  0  0  0  0  0  0
    7.9350    0.3360   -3.0174 H   0  0  0  0  0  0  0  0  0  0  0  0
    7.9497    2.1057   -3.3796 H   0  0  0  0  0  0  0  0  0  0  0  0
    7.2350    2.5362    0.9485 H   0  0  0  0  0  0  0  0  0  0  0  0
    6.2098    3.9683    0.6383 H   0  0  0  0  0  0  0  0  0  0  0  0
    3.7318    3.7410    0.5111 H   0  0  0  0  0  0  0  0  0  0  0  0
    1.7460    2.4670    1.2052 H   0  0  0  0  0  0  0  0  0  0  0  0
    1.0166    0.4767    2.7660 H   0  0  0  0  0  0  0  0  0  0  0  0
    1.8822   -1.0742    2.5565 H   0  0  0  0  0  0  0  0  0  0  0  0
   -0.0511    0.1620    0.7123 H   0  0  0  0  0  0  0  0  0  0  0  0
    0.7813   -2.3877   -1.9761 H   0  0  0  0  0  0  0  0  0  0  0  0
    1.7080    0.3023   -2.0451 H   0  0  0  0  0  0  0  0  0  0  0  0
    0.9141   -0.5943   -3.3947 H   0  0  0  0  0  0  0  0  0  0  0  0
   -0.6791    1.1039   -3.2503 H   0  0  0  0  0  0  0  0  0  0  0  0
   -0.2597    1.4626   -1.5255 H   0  0  0  0  0  0  0  0  0  0  0  0
   -2.2442   -0.5180   -2.6221 H   0  0  0  0  0  0  0  0  0  0  0  0
   -2.1648    0.2871   -0.9913 H   0  0  0  0  0  0  0  0  0  0  0  0
   -3.6131   -1.6062   -0.7963 H   0  0  0  0  0  0  0  0  0  0  0  0
   -3.6224   -3.3670   -0.5094 H   0  0  0  0  0  0  0  0  0  0  0  0
   -2.7156   -3.0245    1.7942 H   0  0  0  0  0  0  0  0  0  0  0  0
   -3.0605   -0.1291    1.2146 H   0  0  0  0  0  0  0  0  0  0  0  0
   -2.6933   -0.8146    2.7146 H   0  0  0  0  0  0  0  0  0  0  0  0
   -4.7422   -2.1821    2.8697 H   0  0  0  0  0  0  0  0  0  0  0  0
   -5.1380   -3.2548    1.5178 H   0  0  0  0  0  0  0  0  0  0  0  0
   -5.1796    0.2588    2.7407 H   0  0  0  0  0  0  0  0  0  0  0  0
   -6.5984    2.0330    1.7809 H   0  0  0  0  0  0  0  0  0  0  0  0
   -7.8438    1.6343   -0.3238 H   0  0  0  0  0  0  0  0  0  0  0  0
   -7.6754   -0.5543   -1.4692 H   0  0  0  0  0  0  0  0  0  0  0  0
    4.2274   -0.9700    1.9938 H   0  0  0  0  0  0  0  0  0  0  0  0
    6.2110    0.3021    1.2996 H   0  0  0  0  0  0  0  0  0  0  0  0
    2.4500    0.3409    0.2505 H   0  0  0  0  0  0  0  0  0  0  0  0
  1  2  1  0
  2  3  1  0
  3  4  2  0
  3  5  1  0
  5  6  1  0
  6  7  2  0
  7  8  1  0
  8  9  2  0
  9 10  1  0
 10 11  1  0
 11 12  1  0
 12 13  2  0
 12 14  1  0
 14 15  1  0
 15 16  1  0
 16 17  1  0
 17 18  1  0
 18 19  1  0
 19 20  2  0
 19 21  1  0
 21 22  1  0
 22 23  1  0
 22 24  1  0
 24 25  1  0
 25 26  2  0
 26 27  1  0
 27 28  2  0
 28 29  1  0
 29 30  2  0
 30 31  1  0
  9 32  1  0
 32 33  2  0
 34 35  2  0
 35 36  1  0
 35 37  1  0
 37 38  1  0
 37 39  1  0
 37 40  1  0
 33  6  1  0
 18 14  1  0
 30 25  1  0
  1 41  1  0
  1 42  1  0
  1 43  1  0
  5 44  1  0
  5 45  1  0
  7 46  1  0
  8 47  1  0
 10 48  1  0
 10 49  1  0
 11 50  1  0
 14 51  1  6
 15 52  1  0
 15 53  1  0
 16 54  1  0
 16 55  1  0
 17 56  1  0
 17 57  1  0
 21 58  1  0
 21 59  1  0
 22 60  1  0
 23 61  1  0
 23 62  1  0
 24 63  1  0
 24 64  1  0
 26 65  1  0
 27 66  1  0
 28 67  1  0
 29 68  1  0
 32 69  1  0
 33 70  1  0
 36 71  1  0
M  END
$$$$
