
     RDKit          3D

 48 50  0  0  0  0  0  0  0  0999 V2000
   -1.2605   -1.7964   -1.9515 N   0  0  0  0  0  0  0  0  0  0  0  0
   -0.7050   -0.9257   -0.9106 C   0  0  1  0  0  0  0  0  0  0  0  0
    0.7243   -0.5066   -1.3015 C   0  0  0  0  0  0  0  0  0  0  0  0
    1.2535    0.4804   -0.3509 N   0  0  0  0  0  0  0  0  0  0  0  0
    2.6206    0.3801    0.0950 C   0  0  0  0  0  0  0  0  0  0  0  0
    3.4525    1.5297    0.1672 C   0  0  0  0  0  0  0  0  0  0  0  0
    4.7771    1.3866    0.6034 C   0  0  0  0  0  0  0  0  0  0  0  0
    5.1947    0.1433    0.9319 N   0  0  0  0  0  0  0  0  0  0  0  0
    6.3679   -0.3342    1.3694 C   0  0  0  0  0  0  0  0  0  0  0  0
    6.2848   -1.6739    1.5514 N   0  0  0  0  0  0  0  0  0  0  0  0
    5.0504   -2.0545    1.2273 N   0  0  0  0  0  0  0  0  0  0  0  0
    4.4128   -0.9322    0.8556 C   0  0  0  0  0  0  0  0  0  0  0  0
    3.1267   -0.8449    0.4405 N   0  0  0  0  0  0  0  0  0  0  0  0
    0.4549    1.6852   -0.0897 C   0  0  0  0  0  0  0  0  0  0  0  0
   -0.9723    1.2981    0.3046 C   0  0  0  0  0  0  0  0  0  0  0  0
   -1.5912    0.3348   -0.7269 C   0  0  2  0  0  0  0  0  0  0  0  0
   -3.0296   -0.0030   -0.3538 C   0  0  0  0  0  0  0  0  0  0  0  0
   -4.0732    0.3962   -1.2113 C   0  0  0  0  0  0  0  0  0  0  0  0
   -5.4038    0.1005   -0.9018 C   0  0  0  0  0  0  0  0  0  0  0  0
   -6.3953    0.4919   -1.7403 F   0  0  0  0  0  0  0  0  0  0  0  0
   -5.7121   -0.5965    0.2680 C   0  0  0  0  0  0  0  0  0  0  0  0
   -7.0027   -0.8839    0.5690 F   0  0  0  0  0  0  0  0  0  0  0  0
   -4.6900   -0.9981    1.1299 C   0  0  0  0  0  0  0  0  0  0  0  0
   -3.3556   -0.7067    0.8285 C   0  0  0  0  0  0  0  0  0  0  0  0
   -2.3946   -1.1148    1.6939 F   0  0  0  0  0  0  0  0  0  0  0  0
    0.7393    0.9058   -1.2615 O   0  0  0  0  0  0  0  0  0  0  0  0
    0.4626    0.1432   -0.2972 C   0  0  0  0  0  0  0  0  0  0  0  0
    1.4822   -0.5311    0.3680 O   0  0  0  0  0  0  0  0  0  0  0  0
   -0.9509    0.0095    0.1688 C   0  0  0  0  0  0  0  0  0  0  0  0
   -1.1135   -1.1831    0.8497 F   0  0  0  0  0  0  0  0  0  0  0  0
   -1.8099    0.0297   -0.9151 F   0  0  0  0  0  0  0  0  0  0  0  0
   -1.2567    1.0603    1.0128 F   0  0  0  0  0  0  0  0  0  0  0  0
   -0.6217   -2.6156   -2.0754 H   0  0  0  0  0  0  0  0  0  0  0  0
   -2.1613   -2.1986   -1.6052 H   0  0  0  0  0  0  0  0  0  0  0  0
   -0.6411   -1.4922    0.0445 H   0  0  0  0  0  0  0  0  0  0  0  0
    1.3695   -1.4113   -1.3357 H   0  0  0  0  0  0  0  0  0  0  0  0
    0.7216   -0.0599   -2.3201 H   0  0  0  0  0  0  0  0  0  0  0  0
    3.0906    2.5063   -0.1260 H   0  0  0  0  0  0  0  0  0  0  0  0
    5.4433    2.2375    0.6689 H   0  0  0  0  0  0  0  0  0  0  0  0
    7.2539    0.2603    1.5505 H   0  0  0  0  0  0  0  0  0  0  0  0
    0.8909    2.2760    0.7449 H   0  0  0  0  0  0  0  0  0  0  0  0
    0.4385    2.3224   -1.0005 H   0  0  0  0  0  0  0  0  0  0  0  0
   -0.9423    0.8282    1.3103 H   0  0  0  0  0  0  0  0  0  0  0  0
   -1.5903    2.2199    0.3747 H   0  0  0  0  0  0  0  0  0  0  0  0
   -1.5951    0.8722   -1.7033 H   0  0  0  0  0  0  0  0  0  0  0  0
   -3.8587    0.9372   -2.1245 H   0  0  0  0  0  0  0  0  0  0  0  0
   -4.9322   -1.5378    2.0365 H   0  0  0  0  0  0  0  0  0  0  0  0
    2.4470   -0.4343    0.0745 H   0  0  0  0  0  0  0  0  0  0  0  0
  1  2  1  0
  2  3  1  0
  3  4  1  0
  4  5  1  0
  5  6  1  0
  6  7  2  0
  7  8  1  0
  8  9  1  0
  9 10  2  0
 10 11  1  0
 11 12  2  0
 12 13  1  0
  4 14  1  0
 14 15  1  0
 15 16  1  0
 16 17  1  0
 17 18  2  0
 18 19  1  0
 19 20  1  0
 19 21  2  0
 21 22  1  0
 21 23  1  0
 23 24  2  0
 24 25  1  0
 26 27  2  0
 27 28  1  0
 27 29  1  0
 29 30  1  0
 29 31  1  0
 29 32  1  0
 16  2  1  0
 24 17  1  0
 13  5  2  0
 12  8  1  0
  1 33  1  0
  1 34  1  0
  2 35  1  1
  3 36  1  0
  3 37  1  0
  6 38  1  0
  7 39  1  0
  9 40  1  0
 14 41  1  0
 14 42  1  0
 15 43  1  0
 15 44  1  0
 16 45  1  6
 18 46  1  0
 23 47  1  0
 28 48  1  0
M  END
$$$$
