
     RDKit          3D

 41 42  0  0  0  0  0  0  0  0999 V2000
    6.9790   -1.0441    0.8315 C   0  0  0  0  0  0  0  0  0  0  0  0
    6.2012    0.1197    1.0924 O   0  0  0  0  0  0  0  0  0  0  0  0
    4.8246    0.2240    0.8439 C   0  0  0  0  0  0  0  0  0  0  0  0
    4.1832    1.4305    1.1478 C   0  0  0  0  0  0  0  0  0  0  0  0
    2.8129    1.5843    0.9192 C   0  0  0  0  0  0  0  0  0  0  0  0
    2.0601    0.5242    0.3923 C   0  0  0  0  0  0  0  0  0  0  0  0
    0.5939    0.7026    0.1120 C   0  0  0  0  0  0  0  0  0  0  0  0
    0.4168    1.2939   -1.2185 N   0  0  0  0  0  0  0  0  0  0  0  0
   -0.9772    1.6895   -1.4686 C   0  0  0  0  0  0  0  0  0  0  0  0
   -1.8762    0.4930   -1.7136 C   0  0  0  0  0  0  0  0  0  0  0  0
   -1.8127   -0.0416   -2.9646 F   0  0  0  0  0  0  0  0  0  0  0  0
   -2.6888   -0.0838   -0.7869 C   0  0  0  0  0  0  0  0  0  0  0  0
   -2.7559    0.3454    0.6713 C   0  0  0  0  0  0  0  0  0  0  0  0
   -4.2083    0.3814    1.1612 C   0  0  0  0  0  0  0  0  0  0  0  0
   -4.9243   -0.9451    0.8860 C   0  0  0  0  0  0  0  0  0  0  0  0
   -4.8967   -1.2731   -0.6104 C   0  0  0  0  0  0  0  0  0  0  0  0
   -3.4596   -1.3440   -1.1389 C   0  0  0  0  0  0  0  0  0  0  0  0
    2.7018   -0.6818    0.0716 C   0  0  0  0  0  0  0  0  0  0  0  0
    4.0726   -0.8353    0.3002 C   0  0  0  0  0  0  0  0  0  0  0  0
    6.9491   -1.2885   -0.2513 H   0  0  0  0  0  0  0  0  0  0  0  0
    8.0315   -0.8495    1.1227 H   0  0  0  0  0  0  0  0  0  0  0  0
    6.5975   -1.8999    1.4276 H   0  0  0  0  0  0  0  0  0  0  0  0
    4.7514    2.2547    1.5603 H   0  0  0  0  0  0  0  0  0  0  0  0
    2.3388    2.5297    1.1527 H   0  0  0  0  0  0  0  0  0  0  0  0
    0.1558    1.3646    0.8914 H   0  0  0  0  0  0  0  0  0  0  0  0
    0.0794   -0.2821    0.1694 H   0  0  0  0  0  0  0  0  0  0  0  0
    0.7108    0.5961   -1.9430 H   0  0  0  0  0  0  0  0  0  0  0  0
   -1.3453    2.3826   -0.6880 H   0  0  0  0  0  0  0  0  0  0  0  0
   -0.9897    2.2990   -2.3971 H   0  0  0  0  0  0  0  0  0  0  0  0
   -2.1852   -0.3871    1.2819 H   0  0  0  0  0  0  0  0  0  0  0  0
   -2.3207    1.3409    0.8642 H   0  0  0  0  0  0  0  0  0  0  0  0
   -4.2215    0.5835    2.2541 H   0  0  0  0  0  0  0  0  0  0  0  0
   -4.7505    1.2101    0.6544 H   0  0  0  0  0  0  0  0  0  0  0  0
   -5.9799   -0.8688    1.2248 H   0  0  0  0  0  0  0  0  0  0  0  0
   -4.4365   -1.7632    1.4605 H   0  0  0  0  0  0  0  0  0  0  0  0
   -5.4614   -0.4969   -1.1727 H   0  0  0  0  0  0  0  0  0  0  0  0
   -5.3982   -2.2502   -0.7802 H   0  0  0  0  0  0  0  0  0  0  0  0
   -2.9415   -2.2166   -0.6852 H   0  0  0  0  0  0  0  0  0  0  0  0
   -3.5085   -1.5159   -2.2352 H   0  0  0  0  0  0  0  0  0  0  0  0
    2.1408   -1.5035   -0.3564 H   0  0  0  0  0  0  0  0  0  0  0  0
    4.5377   -1.7784    0.0479 H   0  0  0  0  0  0  0  0  0  0  0  0
  1  2  1  0
  2  3  1  0
  3  4  2  0
  4  5  1  0
  5  6  2  0
  6  7  1  0
  7  8  1  0
  8  9  1  0
  9 10  1  0
 10 11  1  0
 10 12  2  3
 12 13  1  0
 13 14  1  0
 14 15  1  0
 15 16  1  0
 16 17  1  0
  6 18  1  0
 18 19  2  0
 19  3  1  0
 17 12  1  0
  1 20  1  0
  1 21  1  0
  1 22  1  0
  4 23  1  0
  5 24  1  0
  7 25  1  0
  7 26  1  0
  8 27  1  0
  9 28  1  0
  9 29  1  0
 13 30  1  0
 13 31  1  0
 14 32  1  0
 14 33  1  0
 15 34  1  0
 15 35  1  0
 16 36  1  0
 16 37  1  0
 17 38  1  0
 17 39  1  0
 18 40  1  0
 19 41  1  0
M  END
$$$$
