
     RDKit          3D

 47 50  0  0  0  0  0  0  0  0999 V2000
    6.8625    0.9904   -1.1379 C   0  0  0  0  0  0  0  0  0  0  0  0
    6.8584   -0.5275   -0.2119 S   0  0  0  0  0  0  0  0  0  0  0  0
    7.5802   -1.5973   -0.9817 O   0  0  0  0  0  0  0  0  0  0  0  0
    7.5561   -0.3147    1.1020 O   0  0  0  0  0  0  0  0  0  0  0  0
    5.2276   -1.0236    0.0760 N   0  0  0  0  0  0  0  0  0  0  0  0
    4.3909   -1.5261   -0.8561 C   0  0  0  0  0  0  0  0  0  0  0  0
    3.1605   -1.6596   -0.2541 C   0  0  0  0  0  0  0  0  0  0  0  0
    3.3072   -1.1908    0.9901 C   0  0  0  0  0  0  0  0  0  0  0  0
    4.5620   -0.7474    1.1898 N   0  0  0  0  0  0  0  0  0  0  0  0
    2.0492   -0.5972    1.4761 C   0  0  0  0  0  0  0  0  0  0  0  0
    1.0319   -0.9630    0.4488 N   0  0  0  0  0  0  0  0  0  0  0  0
    0.0830    0.1456    0.1568 C   0  0  1  0  0  0  0  0  0  0  0  0
   -0.9899   -0.2844   -0.8814 C   0  0  0  0  0  0  0  0  0  0  0  0
   -2.0301   -1.0369   -0.2859 O   0  0  0  0  0  0  0  0  0  0  0  0
   -2.7889   -0.2976    0.6700 C   0  0  0  0  0  0  0  0  0  0  0  0
   -4.1759   -0.0028    0.1217 C   0  0  0  0  0  0  0  0  0  0  0  0
   -4.3493    0.8847   -0.9587 C   0  0  0  0  0  0  0  0  0  0  0  0
   -5.6246    1.1477   -1.4674 C   0  0  0  0  0  0  0  0  0  0  0  0
   -5.7734    2.0083   -2.5048 F   0  0  0  0  0  0  0  0  0  0  0  0
   -6.7435    0.5268   -0.9086 C   0  0  0  0  0  0  0  0  0  0  0  0
   -7.9807    0.7817   -1.4018 F   0  0  0  0  0  0  0  0  0  0  0  0
   -6.5882   -0.3583    0.1595 C   0  0  0  0  0  0  0  0  0  0  0  0
   -5.3158   -0.6268    0.6745 C   0  0  0  0  0  0  0  0  0  0  0  0
   -5.2042   -1.4953    1.7117 F   0  0  0  0  0  0  0  0  0  0  0  0
   -2.0884    0.9721    1.2380 C   0  0  1  0  0  0  0  0  0  0  0  0
   -2.7060    1.3736    2.5041 N   0  0  0  0  0  0  0  0  0  0  0  0
   -0.6077    0.6396    1.4593 C   0  0  0  0  0  0  0  0  0  0  0  0
    1.7959   -1.4109   -0.7499 C   0  0  0  0  0  0  0  0  0  0  0  0
    7.9084    1.3150   -1.3161 H   0  0  0  0  0  0  0  0  0  0  0  0
    6.3245    1.7742   -0.5659 H   0  0  0  0  0  0  0  0  0  0  0  0
    6.3541    0.8316   -2.1112 H   0  0  0  0  0  0  0  0  0  0  0  0
    4.6174   -1.6170   -1.9105 H   0  0  0  0  0  0  0  0  0  0  0  0
    1.7781   -1.0336    2.4600 H   0  0  0  0  0  0  0  0  0  0  0  0
    2.1823    0.5047    1.5636 H   0  0  0  0  0  0  0  0  0  0  0  0
    0.6432    1.0036   -0.2826 H   0  0  0  0  0  0  0  0  0  0  0  0
   -1.3969    0.6124   -1.3931 H   0  0  0  0  0  0  0  0  0  0  0  0
   -0.5482   -0.8911   -1.6957 H   0  0  0  0  0  0  0  0  0  0  0  0
   -2.8938   -0.9824    1.5392 H   0  0  0  0  0  0  0  0  0  0  0  0
   -3.5047    1.3845   -1.4083 H   0  0  0  0  0  0  0  0  0  0  0  0
   -7.4569   -0.8396    0.5903 H   0  0  0  0  0  0  0  0  0  0  0  0
   -2.1566    1.8192    0.5183 H   0  0  0  0  0  0  0  0  0  0  0  0
   -2.2271    2.2394    2.8441 H   0  0  0  0  0  0  0  0  0  0  0  0
   -3.6962    1.6516    2.3141 H   0  0  0  0  0  0  0  0  0  0  0  0
   -0.5475   -0.1445    2.2469 H   0  0  0  0  0  0  0  0  0  0  0  0
   -0.0773    1.5392    1.8418 H   0  0  0  0  0  0  0  0  0  0  0  0
    1.8358   -0.6279   -1.5409 H   0  0  0  0  0  0  0  0  0  0  0  0
    1.3625   -2.3497   -1.1537 H   0  0  0  0  0  0  0  0  0  0  0  0
  1  2  1  0
  2  3  2  0
  2  4  2  0
  2  5  1  0
  5  6  1  0
  6  7  2  0
  7  8  1  0
  8  9  2  0
  8 10  1  0
 10 11  1  0
 11 12  1  0
 12 13  1  0
 13 14  1  0
 14 15  1  0
 15 16  1  0
 16 17  2  0
 17 18  1  0
 18 19  1  0
 18 20  2  0
 20 21  1  0
 20 22  1  0
 22 23  2  0
 23 24  1  0
 15 25  1  0
 25 26  1  0
 25 27  1  0
 11 28  1  0
  9  5  1  0
 27 12  1  0
 28  7  1  0
 23 16  1  0
  1 29  1  0
  1 30  1  0
  1 31  1  0
  6 32  1  0
 10 33  1  0
 10 34  1  0
 12 35  1  6
 13 36  1  0
 13 37  1  0
 15 38  1  0
 17 39  1  0
 22 40  1  0
 25 41  1  6
 26 42  1  0
 26 43  1  0
 27 44  1  0
 27 45  1  0
 28 46  1  0
 28 47  1  0
M  END
$$$$
