
     RDKit          3D

 46 49  0  0  0  0  0  0  0  0999 V2000
   -1.7637    0.6343   -2.4486 O   0  0  0  0  0  0  0  0  0  0  0  0
   -1.6940    0.7680   -1.1959 C   0  0  0  0  0  0  0  0  0  0  0  0
   -0.5435    1.5419   -0.5876 C   0  0  2  0  0  0  0  0  0  0  0  0
   -0.0549    2.7114   -1.4342 C   0  0  0  0  0  0  0  0  0  0  0  0
    1.3624    2.9125   -1.1265 N   0  0  0  0  0  0  0  0  0  0  0  0
    1.8338    1.7064   -0.4283 C   0  0  2  0  0  0  0  0  0  0  0  0
    3.0614    1.1480   -1.1077 C   0  0  0  0  0  0  0  0  0  0  0  0
    3.2474    1.3858   -2.3329 O   0  0  0  0  0  0  0  0  0  0  0  0
    3.9851    0.2945   -0.4065 N   0  0  0  0  0  0  0  0  0  0  0  0
    3.8881   -0.0464    1.0035 C   0  0  0  0  0  0  0  0  0  0  0  0
    5.1290   -0.8737    1.3130 C   0  0  0  0  0  0  0  0  0  0  0  0
    5.6808   -1.3239   -0.0381 C   0  0  1  0  0  0  0  0  0  0  0  0
    5.2461   -2.6103   -0.3140 F   0  0  0  0  0  0  0  0  0  0  0  0
    5.1072   -0.3534   -1.0636 C   0  0  0  0  0  0  0  0  0  0  0  0
    0.6936    0.6900   -0.4227 C   0  0  0  0  0  0  0  0  0  0  0  0
   -2.6699    0.1137   -0.3661 N   0  0  0  0  0  0  0  0  0  0  0  0
   -2.6607    0.1172    1.0996 C   0  0  0  0  0  0  0  0  0  0  0  0
   -3.8192   -0.7408    1.4442 C   0  0  0  0  0  0  0  0  0  0  0  0
   -4.2808   -1.0885    2.7148 C   0  0  0  0  0  0  0  0  0  0  0  0
   -5.4084   -1.9198    2.8140 C   0  0  0  0  0  0  0  0  0  0  0  0
   -6.0510   -2.3858    1.6507 C   0  0  0  0  0  0  0  0  0  0  0  0
   -5.5691   -2.0228    0.3826 C   0  0  0  0  0  0  0  0  0  0  0  0
   -4.4472   -1.1956    0.3079 C   0  0  0  0  0  0  0  0  0  0  0  0
   -3.7675   -0.6901   -0.9087 C   0  0  0  0  0  0  0  0  0  0  0  0
   -0.8355    1.9472    0.4058 H   0  0  0  0  0  0  0  0  0  0  0  0
   -0.1393    2.4938   -2.5204 H   0  0  0  0  0  0  0  0  0  0  0  0
   -0.6479    3.6283   -1.2170 H   0  0  0  0  0  0  0  0  0  0  0  0
    1.4484    3.7318   -0.4789 H   0  0  0  0  0  0  0  0  0  0  0  0
    2.0799    1.9699    0.6251 H   0  0  0  0  0  0  0  0  0  0  0  0
    3.8768    0.8719    1.6289 H   0  0  0  0  0  0  0  0  0  0  0  0
    2.9692   -0.6447    1.1825 H   0  0  0  0  0  0  0  0  0  0  0  0
    4.8865   -1.7391    1.9675 H   0  0  0  0  0  0  0  0  0  0  0  0
    5.8833   -0.2354    1.8240 H   0  0  0  0  0  0  0  0  0  0  0  0
    6.7923   -1.3057   -0.0447 H   0  0  0  0  0  0  0  0  0  0  0  0
    5.8643    0.4110   -1.3433 H   0  0  0  0  0  0  0  0  0  0  0  0
    4.7669   -0.8941   -1.9737 H   0  0  0  0  0  0  0  0  0  0  0  0
    0.6627    0.1159    0.5287 H   0  0  0  0  0  0  0  0  0  0  0  0
    0.7904   -0.0197   -1.2769 H   0  0  0  0  0  0  0  0  0  0  0  0
   -2.8158    1.1460    1.4883 H   0  0  0  0  0  0  0  0  0  0  0  0
   -1.7192   -0.3279    1.4855 H   0  0  0  0  0  0  0  0  0  0  0  0
   -3.7817   -0.7261    3.6041 H   0  0  0  0  0  0  0  0  0  0  0  0
   -5.7848   -2.2031    3.7883 H   0  0  0  0  0  0  0  0  0  0  0  0
   -6.9194   -3.0262    1.7342 H   0  0  0  0  0  0  0  0  0  0  0  0
   -6.0571   -2.3772   -0.5161 H   0  0  0  0  0  0  0  0  0  0  0  0
   -4.4551   -0.0547   -1.5064 H   0  0  0  0  0  0  0  0  0  0  0  0
   -3.3702   -1.5344   -1.5115 H   0  0  0  0  0  0  0  0  0  0  0  0
  1  2  2  0
  2  3  1  0
  3  4  1  0
  4  5  1  0
  5  6  1  0
  6  7  1  0
  7  8  2  0
  7  9  1  0
  9 10  1  0
 10 11  1  0
 11 12  1  0
 12 13  1  0
 12 14  1  0
  6 15  1  0
  2 16  1  0
 16 17  1  0
 17 18  1  0
 18 19  2  0
 19 20  1  0
 20 21  2  0
 21 22  1  0
 22 23  2  0
 23 24  1  0
 15  3  1  0
 24 16  1  0
 14  9  1  0
 23 18  1  0
  3 25  1  1
  4 26  1  0
  4 27  1  0
  5 28  1  0
  6 29  1  1
 10 30  1  0
 10 31  1  0
 11 32  1  0
 11 33  1  0
 12 34  1  1
 14 35  1  0
 14 36  1  0
 15 37  1  0
 15 38  1  0
 17 39  1  0
 17 40  1  0
 19 41  1  0
 20 42  1  0
 21 43  1  0
 22 44  1  0
 24 45  1  0
 24 46  1  0
M  END
$$$$
