
     RDKit          3D

 67 67  0  0  0  0  0  0  0  0999 V2000
    0.9290    4.9246    1.0983 C   0  0  0  0  0  0  0  0  0  0  0  0
    0.5922    3.5012    0.7666 C   0  0  0  0  0  0  0  0  0  0  0  0
    1.0974    2.4504    1.5477 C   0  0  0  0  0  0  0  0  0  0  0  0
    0.7323    1.1296    1.2727 C   0  0  0  0  0  0  0  0  0  0  0  0
   -0.1577    0.8471    0.2265 C   0  0  0  0  0  0  0  0  0  0  0  0
   -0.5981   -0.5473   -0.0171 C   0  0  0  0  0  0  0  0  0  0  0  0
   -1.8659   -0.9862    0.4493 C   0  0  0  0  0  0  0  0  0  0  0  0
   -2.7827   -0.0296    1.1949 C   0  0  0  0  0  0  0  0  0  0  0  0
   -3.5684    0.7568    0.2491 N   0  0  0  0  0  0  0  0  0  0  0  0
   -2.2550   -2.3258    0.1957 C   0  0  0  0  0  0  0  0  0  0  0  0
   -3.5947   -2.8808    0.6457 C   0  0  0  0  0  0  0  0  0  0  0  0
   -4.0580   -4.1264   -0.1467 C   0  0  0  0  0  0  0  0  0  0  0  0
   -5.3029   -4.7363    0.5099 C   0  0  0  0  0  0  0  0  0  0  0  0
   -4.3592   -3.7774   -1.6126 C   0  0  0  0  0  0  0  0  0  0  0  0
   -1.3702   -3.1727   -0.3923 N   0  0  0  0  0  0  0  0  0  0  0  0
   -0.1413   -2.7953   -0.8210 C   0  0  0  0  0  0  0  0  0  0  0  0
    0.7223   -3.8296   -1.4846 C   0  0  0  0  0  0  0  0  0  0  0  0
    0.2760   -1.4593   -0.6538 C   0  0  0  0  0  0  0  0  0  0  0  0
    1.5966   -1.0133   -1.1536 C   0  0  0  0  0  0  0  0  0  0  0  0
    2.6343   -1.6654   -0.8561 O   0  0  0  0  0  0  0  0  0  0  0  0
    1.6772    0.1205   -1.9714 O   0  0  0  0  0  0  0  0  0  0  0  0
    2.9060    0.6735   -2.4376 C   0  0  0  0  0  0  0  0  0  0  0  0
    3.4020    1.7170   -1.4750 C   0  0  0  0  0  0  0  0  0  0  0  0
    3.1773    3.0779   -1.7312 C   0  0  0  0  0  0  0  0  0  0  0  0
    3.6352    4.0465   -0.8368 C   0  0  0  0  0  0  0  0  0  0  0  0
    4.2956    3.6665    0.3335 C   0  0  0  0  0  0  0  0  0  0  0  0
    4.5091    2.3067    0.6201 C   0  0  0  0  0  0  0  0  0  0  0  0
    5.1846    1.8972    1.8709 C   0  0  0  0  0  0  0  0  0  0  0  0
    5.5876    2.7645    2.6926 O   0  0  0  0  0  0  0  0  0  0  0  0
    5.3786    0.5477    2.1547 O   0  0  0  0  0  0  0  0  0  0  0  0
    4.0631    1.3373   -0.2958 C   0  0  0  0  0  0  0  0  0  0  0  0
   -0.6578    1.8950   -0.5594 C   0  0  0  0  0  0  0  0  0  0  0  0
   -0.2888    3.2153   -0.2874 C   0  0  0  0  0  0  0  0  0  0  0  0
    0.6878    0.0000    0.0000 Cl  0  0  0  0  0  0  0  0  0  0  0  0
    0.6878    0.0000    0.0000 Cl  0  0  0  0  0  0  0  0  0  0  0  0
    0.1212    5.3584    1.7236 H   0  0  0  0  0  0  0  0  0  0  0  0
    1.8881    4.9872    1.6550 H   0  0  0  0  0  0  0  0  0  0  0  0
    1.0300    5.5244    0.1689 H   0  0  0  0  0  0  0  0  0  0  0  0
    1.7699    2.6531    2.3721 H   0  0  0  0  0  0  0  0  0  0  0  0
    1.1251    0.3289    1.8871 H   0  0  0  0  0  0  0  0  0  0  0  0
   -2.1866    0.6561    1.8341 H   0  0  0  0  0  0  0  0  0  0  0  0
   -3.4525   -0.5629    1.9023 H   0  0  0  0  0  0  0  0  0  0  0  0
   -4.1435    1.4358    0.7983 H   0  0  0  0  0  0  0  0  0  0  0  0
   -4.2404    0.1207   -0.2372 H   0  0  0  0  0  0  0  0  0  0  0  0
   -4.3876   -2.1104    0.5491 H   0  0  0  0  0  0  0  0  0  0  0  0
   -3.5027   -3.1431    1.7220 H   0  0  0  0  0  0  0  0  0  0  0  0
   -3.2594   -4.9005   -0.1213 H   0  0  0  0  0  0  0  0  0  0  0  0
   -5.6225   -5.6456   -0.0428 H   0  0  0  0  0  0  0  0  0  0  0  0
   -5.0784   -5.0328    1.5567 H   0  0  0  0  0  0  0  0  0  0  0  0
   -6.1415   -4.0068    0.5158 H   0  0  0  0  0  0  0  0  0  0  0  0
   -3.4527   -3.3839   -2.1178 H   0  0  0  0  0  0  0  0  0  0  0  0
   -5.1625   -3.0122   -1.6762 H   0  0  0  0  0  0  0  0  0  0  0  0
   -4.6863   -4.6855   -2.1625 H   0  0  0  0  0  0  0  0  0  0  0  0
    1.5707   -4.0942   -0.8199 H   0  0  0  0  0  0  0  0  0  0  0  0
    1.1078   -3.4470   -2.4531 H   0  0  0  0  0  0  0  0  0  0  0  0
    0.1372   -4.7518   -1.6879 H   0  0  0  0  0  0  0  0  0  0  0  0
    2.7271    1.1307   -3.4340 H   0  0  0  0  0  0  0  0  0  0  0  0
    3.6719   -0.1189   -2.5857 H   0  0  0  0  0  0  0  0  0  0  0  0
    2.6522    3.3906   -2.6251 H   0  0  0  0  0  0  0  0  0  0  0  0
    3.4653    5.0951   -1.0441 H   0  0  0  0  0  0  0  0  0  0  0  0
    4.6286    4.4364    1.0182 H   0  0  0  0  0  0  0  0  0  0  0  0
    5.8378    0.2565    3.0094 H   0  0  0  0  0  0  0  0  0  0  0  0
    4.2283    0.2871   -0.0945 H   0  0  0  0  0  0  0  0  0  0  0  0
   -1.3429    1.6892   -1.3725 H   0  0  0  0  0  0  0  0  0  0  0  0
   -0.6974    4.0156   -0.8918 H   0  0  0  0  0  0  0  0  0  0  0  0
   -0.6878    0.0000    0.0000 H   0  0  0  0  0  0  0  0  0  0  0  0
   -0.6878    0.0000    0.0000 H   0  0  0  0  0  0  0  0  0  0  0  0
  1  2  1  0
  2  3  2  0
  3  4  1  0
  4  5  2  0
  5  6  1  0
  6  7  2  0
  7  8  1  0
  8  9  1  0
  7 10  1  0
 10 11  1  0
 11 12  1  0
 12 13  1  0
 12 14  1  0
 10 15  2  0
 15 16  1  0
 16 17  1  0
 16 18  2  0
 18 19  1  0
 19 20  2  0
 19 21  1  0
 21 22  1  0
 22 23  1  0
 23 24  2  0
 24 25  1  0
 25 26  2  0
 26 27  1  0
 27 28  1  0
 28 29  2  0
 28 30  1  0
 27 31  2  0
  5 32  1  0
 32 33  2  0
 33  2  1  0
 18  6  1  0
 31 23  1  0
  1 36  1  0
  1 37  1  0
  1 38  1  0
  3 39  1  0
  4 40  1  0
  8 41  1  0
  8 42  1  0
  9 43  1  0
  9 44  1  0
 11 45  1  0
 11 46  1  0
 12 47  1  0
 13 48  1  0
 13 49  1  0
 13 50  1  0
 14 51  1  0
 14 52  1  0
 14 53  1  0
 17 54  1  0
 17 55  1  0
 17 56  1  0
 22 57  1  0
 22 58  1  0
 24 59  1  0
 25 60  1  0
 26 61  1  0
 30 62  1  0
 31 63  1  0
 32 64  1  0
 33 65  1  0
 34 66  1  0
 35 67  1  0
M  END
$$$$
