
     RDKit          3D

 48 49  0  0  0  0  0  0  0  0999 V2000
   -7.9781    0.7603    1.4422 C   0  0  0  0  0  0  0  0  0  0  0  0
   -6.5761    0.9433    0.9412 C   0  0  0  0  0  0  0  0  0  0  0  0
   -6.1297    2.2086    0.5369 C   0  0  0  0  0  0  0  0  0  0  0  0
   -4.8357    2.3740    0.0348 C   0  0  0  0  0  0  0  0  0  0  0  0
   -3.9649    1.2741   -0.0827 C   0  0  0  0  0  0  0  0  0  0  0  0
   -2.5909    1.4675   -0.6201 C   0  0  0  0  0  0  0  0  0  0  0  0
   -2.2840    2.5711   -1.1504 O   0  0  0  0  0  0  0  0  0  0  0  0
   -1.5654    0.3634   -0.5796 C   0  0  0  0  0  0  0  0  0  0  0  0
   -0.2258    0.8840   -0.9023 N   0  0  0  0  0  0  0  0  0  0  0  0
    0.7844   -0.1576   -1.1851 C   0  0  2  0  0  0  0  0  0  0  0  0
    0.5253   -0.8141   -2.5504 C   0  0  0  0  0  0  0  0  0  0  0  0
    0.9030   -1.1961   -0.0374 C   0  0  0  0  0  0  0  0  0  0  0  0
    2.1472   -2.0966   -0.1340 C   0  0  0  0  0  0  0  0  0  0  0  0
    3.4298   -1.3198    0.0247 C   0  0  0  0  0  0  0  0  0  0  0  0
    3.8246   -0.8600    1.2895 C   0  0  0  0  0  0  0  0  0  0  0  0
    5.0015   -0.1205    1.4388 C   0  0  0  0  0  0  0  0  0  0  0  0
    5.8025    0.1800    0.3218 C   0  0  0  0  0  0  0  0  0  0  0  0
    7.0565    0.9602    0.4619 C   0  0  0  0  0  0  0  0  0  0  0  0
    7.2714    1.8385    1.5701 N   0  0  0  0  0  0  0  0  0  0  0  0
    7.9527    0.8631   -0.4194 O   0  0  0  0  0  0  0  0  0  0  0  0
    5.4071   -0.2918   -0.9428 C   0  0  0  0  0  0  0  0  0  0  0  0
    4.2299   -1.0304   -1.0905 C   0  0  0  0  0  0  0  0  0  0  0  0
   -4.4291    0.0016    0.3050 C   0  0  0  0  0  0  0  0  0  0  0  0
   -5.7239   -0.1610    0.8065 C   0  0  0  0  0  0  0  0  0  0  0  0
   -8.0296   -0.0838    2.1626 H   0  0  0  0  0  0  0  0  0  0  0  0
   -8.3313    1.6765    1.9617 H   0  0  0  0  0  0  0  0  0  0  0  0
   -8.6512    0.5472    0.5857 H   0  0  0  0  0  0  0  0  0  0  0  0
   -6.7832    3.0692    0.6113 H   0  0  0  0  0  0  0  0  0  0  0  0
   -4.5171    3.3661   -0.2597 H   0  0  0  0  0  0  0  0  0  0  0  0
   -1.8756   -0.4098   -1.3119 H   0  0  0  0  0  0  0  0  0  0  0  0
   -1.5599   -0.0798    0.4404 H   0  0  0  0  0  0  0  0  0  0  0  0
    0.1078    1.4534   -0.0883 H   0  0  0  0  0  0  0  0  0  0  0  0
    1.7595    0.3696   -1.2735 H   0  0  0  0  0  0  0  0  0  0  0  0
   -0.2911   -1.5638   -2.4925 H   0  0  0  0  0  0  0  0  0  0  0  0
    1.4418   -1.3250   -2.9120 H   0  0  0  0  0  0  0  0  0  0  0  0
    0.2525   -0.0402   -3.2990 H   0  0  0  0  0  0  0  0  0  0  0  0
    0.0063   -1.8530   -0.0348 H   0  0  0  0  0  0  0  0  0  0  0  0
    0.9230   -0.6641    0.9389 H   0  0  0  0  0  0  0  0  0  0  0  0
    2.0928   -2.8595    0.6729 H   0  0  0  0  0  0  0  0  0  0  0  0
    2.1404   -2.6597   -1.0914 H   0  0  0  0  0  0  0  0  0  0  0  0
    3.2217   -1.0787    2.1623 H   0  0  0  0  0  0  0  0  0  0  0  0
    5.2886    0.1921    2.4333 H   0  0  0  0  0  0  0  0  0  0  0  0
    8.1869    2.3298    1.6741 H   0  0  0  0  0  0  0  0  0  0  0  0
    6.5076    2.0774    2.2391 H   0  0  0  0  0  0  0  0  0  0  0  0
    6.0026   -0.0788   -1.8220 H   0  0  0  0  0  0  0  0  0  0  0  0
    3.9407   -1.3719   -2.0765 H   0  0  0  0  0  0  0  0  0  0  0  0
   -3.8032   -0.8756    0.2120 H   0  0  0  0  0  0  0  0  0  0  0  0
   -6.0623   -1.1505    1.0886 H   0  0  0  0  0  0  0  0  0  0  0  0
  1  2  1  0
  2  3  2  0
  3  4  1  0
  4  5  2  0
  5  6  1  0
  6  7  2  0
  6  8  1  0
  8  9  1  0
  9 10  1  0
 10 11  1  0
 10 12  1  0
 12 13  1  0
 13 14  1  0
 14 15  2  0
 15 16  1  0
 16 17  2  0
 17 18  1  0
 18 19  1  0
 18 20  2  0
 17 21  1  0
 21 22  2  0
  5 23  1  0
 23 24  2  0
 24  2  1  0
 22 14  1  0
  1 25  1  0
  1 26  1  0
  1 27  1  0
  3 28  1  0
  4 29  1  0
  8 30  1  0
  8 31  1  0
  9 32  1  0
 10 33  1  6
 11 34  1  0
 11 35  1  0
 11 36  1  0
 12 37  1  0
 12 38  1  0
 13 39  1  0
 13 40  1  0
 15 41  1  0
 16 42  1  0
 19 43  1  0
 19 44  1  0
 21 45  1  0
 22 46  1  0
 23 47  1  0
 24 48  1  0
M  END
$$$$
