
     RDKit          3D

 54 57  0  0  0  0  0  0  0  0999 V2000
    8.1170    2.5935   -0.2729 C   0  0  0  0  0  0  0  0  0  0  0  0
    7.6555    1.2804    0.0279 O   0  0  0  0  0  0  0  0  0  0  0  0
    6.3080    0.8905    0.0081 C   0  0  0  0  0  0  0  0  0  0  0  0
    5.2703    1.7776   -0.3182 C   0  0  0  0  0  0  0  0  0  0  0  0
    3.9421    1.3428   -0.3237 C   0  0  0  0  0  0  0  0  0  0  0  0
    3.6069    0.0065    0.0007 C   0  0  0  0  0  0  0  0  0  0  0  0
    2.2176   -0.4489   -0.0042 N   0  0  0  0  0  0  0  0  0  0  0  0
    1.1421    0.5487   -0.1921 C   0  0  0  0  0  0  0  0  0  0  0  0
   -0.2543   -0.0219    0.0059 C   0  0  0  0  0  0  0  0  0  0  0  0
   -0.3547   -1.3001   -0.7153 N   0  0  0  0  0  0  0  0  0  0  0  0
   -1.7395   -1.7951   -0.9521 C   0  0  2  0  0  0  0  0  0  0  0  0
   -2.4799   -1.0143   -2.0400 C   0  0  0  0  0  0  0  0  0  0  0  0
   -3.8992   -0.9601   -1.6711 N   0  0  0  0  0  0  0  0  0  0  0  0
   -4.0488   -1.6938   -0.4106 C   0  0  2  0  0  0  0  0  0  0  0  0
   -5.0875   -1.0647    0.4923 C   0  0  0  0  0  0  0  0  0  0  0  0
   -5.8728   -1.8392    1.1047 O   0  0  0  0  0  0  0  0  0  0  0  0
   -5.1845    0.3599    0.7250 N   0  0  0  0  0  0  0  0  0  0  0  0
   -4.3852    1.3625    0.0308 C   0  0  0  0  0  0  0  0  0  0  0  0
   -4.5507    2.6830    0.7613 C   0  0  0  0  0  0  0  0  0  0  0  0
   -6.1947    2.6970    1.5214 S   0  0  0  0  0  0  0  0  0  0  0  0
   -6.1639    0.8877    1.6675 C   0  0  0  0  0  0  0  0  0  0  0  0
   -2.6786   -1.7746    0.2474 C   0  0  0  0  0  0  0  0  0  0  0  0
    0.4507   -2.2927    0.0081 C   0  0  0  0  0  0  0  0  0  0  0  0
    1.9397   -1.9056    0.0178 C   0  0  0  0  0  0  0  0  0  0  0  0
    4.6683   -0.8727    0.3202 C   0  0  0  0  0  0  0  0  0  0  0  0
    5.9943   -0.4318    0.3241 C   0  0  0  0  0  0  0  0  0  0  0  0
    7.6819    3.3241    0.4414 H   0  0  0  0  0  0  0  0  0  0  0  0
    9.2219    2.6197   -0.1790 H   0  0  0  0  0  0  0  0  0  0  0  0
    7.8420    2.8658   -1.3138 H   0  0  0  0  0  0  0  0  0  0  0  0
    5.4786    2.8079   -0.5728 H   0  0  0  0  0  0  0  0  0  0  0  0
    3.1883    2.0673   -0.5950 H   0  0  0  0  0  0  0  0  0  0  0  0
    1.2707    1.3796    0.5357 H   0  0  0  0  0  0  0  0  0  0  0  0
    1.2085    0.9612   -1.2227 H   0  0  0  0  0  0  0  0  0  0  0  0
   -0.9856    0.7199   -0.3722 H   0  0  0  0  0  0  0  0  0  0  0  0
   -0.4338   -0.1475    1.0981 H   0  0  0  0  0  0  0  0  0  0  0  0
   -1.6944   -2.8490   -1.3154 H   0  0  0  0  0  0  0  0  0  0  0  0
   -2.1026    0.0222   -2.1435 H   0  0  0  0  0  0  0  0  0  0  0  0
   -2.3458   -1.5125   -3.0272 H   0  0  0  0  0  0  0  0  0  0  0  0
   -4.4680   -1.4340   -2.4123 H   0  0  0  0  0  0  0  0  0  0  0  0
   -4.3707   -2.7380   -0.6415 H   0  0  0  0  0  0  0  0  0  0  0  0
   -3.3133    1.0867    0.0282 H   0  0  0  0  0  0  0  0  0  0  0  0
   -4.7492    1.4650   -1.0141 H   0  0  0  0  0  0  0  0  0  0  0  0
   -3.7893    2.7671    1.5664 H   0  0  0  0  0  0  0  0  0  0  0  0
   -4.4406    3.5391    0.0628 H   0  0  0  0  0  0  0  0  0  0  0  0
   -7.1755    0.4949    1.4313 H   0  0  0  0  0  0  0  0  0  0  0  0
   -5.8812    0.6020    2.7027 H   0  0  0  0  0  0  0  0  0  0  0  0
   -2.5212   -0.8980    0.9044 H   0  0  0  0  0  0  0  0  0  0  0  0
   -2.5760   -2.7002    0.8550 H   0  0  0  0  0  0  0  0  0  0  0  0
    0.3653   -3.2910   -0.4761 H   0  0  0  0  0  0  0  0  0  0  0  0
    0.0837   -2.4081    1.0543 H   0  0  0  0  0  0  0  0  0  0  0  0
    2.4315   -2.3717   -0.8642 H   0  0  0  0  0  0  0  0  0  0  0  0
    2.3747   -2.3525    0.9367 H   0  0  0  0  0  0  0  0  0  0  0  0
    4.4957   -1.9080    0.5708 H   0  0  0  0  0  0  0  0  0  0  0  0
    6.7861   -1.1266    0.5748 H   0  0  0  0  0  0  0  0  0  0  0  0
  1  2  1  0
  2  3  1  0
  3  4  2  0
  4  5  1  0
  5  6  2  0
  6  7  1  0
  7  8  1  0
  8  9  1  0
  9 10  1  0
 10 11  1  0
 11 12  1  0
 12 13  1  0
 13 14  1  0
 14 15  1  0
 15 16  2  0
 15 17  1  0
 17 18  1  0
 18 19  1  0
 19 20  1  0
 20 21  1  0
 14 22  1  0
 10 23  1  0
 23 24  1  0
  6 25  1  0
 25 26  2  0
 26  3  1  0
 24  7  1  0
 22 11  1  0
 21 17  1  0
  1 27  1  0
  1 28  1  0
  1 29  1  0
  4 30  1  0
  5 31  1  0
  8 32  1  0
  8 33  1  0
  9 34  1  0
  9 35  1  0
 11 36  1  6
 12 37  1  0
 12 38  1  0
 13 39  1  0
 14 40  1  6
 18 41  1  0
 18 42  1  0
 19 43  1  0
 19 44  1  0
 21 45  1  0
 21 46  1  0
 22 47  1  0
 22 48  1  0
 23 49  1  0
 23 50  1  0
 24 51  1  0
 24 52  1  0
 25 53  1  0
 26 54  1  0
M  END
$$$$
