
     RDKit          3D

 71 76  0  0  0  0  0  0  0  0999 V2000
    2.2761    1.3746    0.6762 N   0  0  0  0  0  0  0  0  0  0  0  0
    2.9303    0.4292    1.5874 C   0  0  1  0  0  0  0  0  0  0  0  0
    2.6322   -1.0424    1.2091 C   0  0  0  0  0  0  0  0  0  0  0  0
    1.2435   -1.5283    1.6625 C   0  0  0  0  0  0  0  0  0  0  0  0
    0.0959   -0.8622    0.8910 C   0  0  0  0  0  0  0  0  0  0  0  0
   -1.2535   -1.5119    1.2287 C   0  0  0  0  0  0  0  0  0  0  0  0
   -2.3473   -0.9369    0.4285 N   0  0  0  0  0  0  0  0  0  0  0  0
   -3.4252   -1.7693   -0.0486 C   0  0  0  0  0  0  0  0  0  0  0  0
   -3.8976   -2.8480    0.7208 C   0  0  0  0  0  0  0  0  0  0  0  0
   -4.9503   -3.6435    0.2616 C   0  0  0  0  0  0  0  0  0  0  0  0
   -5.5532   -3.3722   -0.9738 C   0  0  0  0  0  0  0  0  0  0  0  0
   -6.6119   -4.1651   -1.4438 C   0  0  0  0  0  0  0  0  0  0  0  0
   -7.2060   -3.8825   -2.6771 C   0  0  0  0  0  0  0  0  0  0  0  0
   -6.7500   -2.8099   -3.4481 C   0  0  0  0  0  0  0  0  0  0  0  0
   -5.6968   -2.0125   -2.9910 C   0  0  0  0  0  0  0  0  0  0  0  0
   -5.0914   -2.2855   -1.7542 C   0  0  0  0  0  0  0  0  0  0  0  0
   -4.0339   -1.4922   -1.2852 C   0  0  0  0  0  0  0  0  0  0  0  0
   -2.5313    0.4875    0.4109 C   0  0  0  0  0  0  0  0  0  0  0  0
   -1.9625    1.2575   -0.6125 C   0  0  0  0  0  0  0  0  0  0  0  0
   -2.1312    2.6441   -0.6298 C   0  0  0  0  0  0  0  0  0  0  0  0
   -2.8748    3.2761    0.3779 C   0  0  0  0  0  0  0  0  0  0  0  0
   -3.0510    4.6684    0.3716 C   0  0  0  0  0  0  0  0  0  0  0  0
   -3.7944    5.2860    1.3816 C   0  0  0  0  0  0  0  0  0  0  0  0
   -4.3659    4.5214    2.4023 C   0  0  0  0  0  0  0  0  0  0  0  0
   -4.1981    3.1338    2.4206 C   0  0  0  0  0  0  0  0  0  0  0  0
   -3.4540    2.5010    1.4128 C   0  0  0  0  0  0  0  0  0  0  0  0
   -3.2774    1.1094    1.4206 C   0  0  0  0  0  0  0  0  0  0  0  0
    4.4245    0.6820    1.6974 C   0  0  0  0  0  0  0  0  0  0  0  0
    4.8883    0.9877    2.8299 O   0  0  0  0  0  0  0  0  0  0  0  0
    5.3382    0.5306    0.5923 N   0  0  0  0  0  0  0  0  0  0  0  0
    6.7837    0.3914    0.7933 C   0  0  0  0  0  0  0  0  0  0  0  0
    7.3197    0.3656   -0.5873 C   0  0  0  0  0  0  0  0  0  0  0  0
    8.6500    0.2335   -0.9894 C   0  0  0  0  0  0  0  0  0  0  0  0
    8.9381    0.2382   -2.3639 C   0  0  0  0  0  0  0  0  0  0  0  0
    7.9000    0.3749   -3.3057 C   0  0  0  0  0  0  0  0  0  0  0  0
    6.5692    0.5074   -2.8771 C   0  0  0  0  0  0  0  0  0  0  0  0
    6.3067    0.4990   -1.5060 C   0  0  0  0  0  0  0  0  0  0  0  0
    4.9940    0.6255   -0.8300 C   0  0  0  0  0  0  0  0  0  0  0  0
    2.4157    1.0937   -0.3191 H   0  0  0  0  0  0  0  0  0  0  0  0
    2.6768    2.3317    0.8106 H   0  0  0  0  0  0  0  0  0  0  0  0
    2.4997    0.6057    2.5986 H   0  0  0  0  0  0  0  0  0  0  0  0
    2.7379   -1.2058    0.1171 H   0  0  0  0  0  0  0  0  0  0  0  0
    3.3823   -1.6981    1.7048 H   0  0  0  0  0  0  0  0  0  0  0  0
    1.1172   -1.3512    2.7531 H   0  0  0  0  0  0  0  0  0  0  0  0
    1.1996   -2.6271    1.4960 H   0  0  0  0  0  0  0  0  0  0  0  0
    0.0526    0.2115    1.1668 H   0  0  0  0  0  0  0  0  0  0  0  0
    0.2781   -0.9507   -0.2024 H   0  0  0  0  0  0  0  0  0  0  0  0
   -1.1721   -2.6022    1.0235 H   0  0  0  0  0  0  0  0  0  0  0  0
   -1.4786   -1.3755    2.3089 H   0  0  0  0  0  0  0  0  0  0  0  0
   -3.4645   -3.0651    1.6885 H   0  0  0  0  0  0  0  0  0  0  0  0
   -5.2962   -4.4670    0.8750 H   0  0  0  0  0  0  0  0  0  0  0  0
   -6.9785   -5.0005   -0.8592 H   0  0  0  0  0  0  0  0  0  0  0  0
   -8.0220   -4.4963   -3.0362 H   0  0  0  0  0  0  0  0  0  0  0  0
   -7.2141   -2.5959   -4.4022 H   0  0  0  0  0  0  0  0  0  0  0  0
   -5.3568   -1.1849   -3.6022 H   0  0  0  0  0  0  0  0  0  0  0  0
   -3.6753   -0.6649   -1.8854 H   0  0  0  0  0  0  0  0  0  0  0  0
   -1.3866    0.7791   -1.3945 H   0  0  0  0  0  0  0  0  0  0  0  0
   -1.6814    3.2213   -1.4288 H   0  0  0  0  0  0  0  0  0  0  0  0
   -2.6151    5.2770   -0.4118 H   0  0  0  0  0  0  0  0  0  0  0  0
   -3.9280    6.3600    1.3732 H   0  0  0  0  0  0  0  0  0  0  0  0
   -4.9404    5.0056    3.1814 H   0  0  0  0  0  0  0  0  0  0  0  0
   -4.6482    2.5571    3.2199 H   0  0  0  0  0  0  0  0  0  0  0  0
   -3.7138    0.5051    2.2076 H   0  0  0  0  0  0  0  0  0  0  0  0
    7.0110   -0.5602    1.3195 H   0  0  0  0  0  0  0  0  0  0  0  0
    7.1872    1.2654    1.3480 H   0  0  0  0  0  0  0  0  0  0  0  0
    9.4421    0.1301   -0.2592 H   0  0  0  0  0  0  0  0  0  0  0  0
    9.9617    0.1370   -2.7004 H   0  0  0  0  0  0  0  0  0  0  0  0
    8.1284    0.3783   -4.3635 H   0  0  0  0  0  0  0  0  0  0  0  0
    5.7658    0.6137   -3.5945 H   0  0  0  0  0  0  0  0  0  0  0  0
    4.3326   -0.2074   -1.1390 H   0  0  0  0  0  0  0  0  0  0  0  0
    4.5509    1.6175   -1.0581 H   0  0  0  0  0  0  0  0  0  0  0  0
  1  2  1  0
  2  3  1  0
  3  4  1  0
  4  5  1  0
  5  6  1  0
  6  7  1  0
  7  8  1  0
  8  9  2  0
  9 10  1  0
 10 11  2  0
 11 12  1  0
 12 13  2  0
 13 14  1  0
 14 15  2  0
 15 16  1  0
 16 17  2  0
  7 18  1  0
 18 19  2  0
 19 20  1  0
 20 21  2  0
 21 22  1  0
 22 23  2  0
 23 24  1  0
 24 25  2  0
 25 26  1  0
 26 27  2  0
  2 28  1  0
 28 29  2  0
 28 30  1  0
 30 31  1  0
 31 32  1  0
 32 33  2  0
 33 34  1  0
 34 35  2  0
 35 36  1  0
 36 37  2  0
 37 38  1  0
 17  8  1  0
 27 18  1  0
 38 30  1  0
 16 11  1  0
 26 21  1  0
 37 32  1  0
  1 39  1  0
  1 40  1  0
  2 41  1  1
  3 42  1  0
  3 43  1  0
  4 44  1  0
  4 45  1  0
  5 46  1  0
  5 47  1  0
  6 48  1  0
  6 49  1  0
  9 50  1  0
 10 51  1  0
 12 52  1  0
 13 53  1  0
 14 54  1  0
 15 55  1  0
 17 56  1  0
 19 57  1  0
 20 58  1  0
 22 59  1  0
 23 60  1  0
 24 61  1  0
 25 62  1  0
 27 63  1  0
 31 64  1  0
 31 65  1  0
 33 66  1  0
 34 67  1  0
 35 68  1  0
 36 69  1  0
 38 70  1  0
 38 71  1  0
M  END
$$$$
