
     RDKit          3D

 79 84  0  0  0  0  0  0  0  0999 V2000
    7.7844    2.5724   -0.8149 N   0  0  0  0  0  0  0  0  0  0  0  0
    7.2502    1.6388    0.1810 C   0  0  1  0  0  0  0  0  0  0  0  0
    5.7394    1.8385    0.3703 C   0  0  0  0  0  0  0  0  0  0  0  0
    5.1636    0.8123    1.3714 C   0  0  1  0  0  0  0  0  0  0  0  0
    3.8131    0.3645    0.9381 N   0  0  0  0  0  0  0  0  0  0  0  0
    3.8111   -0.6672   -0.1149 C   0  0  0  0  0  0  0  0  0  0  0  0
    2.4238   -0.7052   -0.7512 C   0  0  0  0  0  0  0  0  0  0  0  0
    1.3687   -0.6952    0.2729 N   0  0  0  0  0  0  0  0  0  0  0  0
   -0.0123   -0.7171   -0.1454 C   0  0  0  0  0  0  0  0  0  0  0  0
   -0.3320   -0.5568   -1.4586 N   0  0  0  0  0  0  0  0  0  0  0  0
   -1.6223   -0.5744   -1.8800 C   0  0  0  0  0  0  0  0  0  0  0  0
   -2.6603   -0.7709   -0.9606 C   0  0  0  0  0  0  0  0  0  0  0  0
   -4.0359   -0.7810   -1.3895 N   0  0  0  0  0  0  0  0  0  0  0  0
   -4.5842    0.1211   -2.3914 C   0  0  0  0  0  0  0  0  0  0  0  0
   -6.0848   -0.2089   -2.4887 C   0  0  0  0  0  0  0  0  0  0  0  0
   -6.4333   -1.0931   -1.2632 C   0  0  0  0  0  0  0  0  0  0  0  0
   -7.1604   -2.2295   -1.6600 O   0  0  0  0  0  0  0  0  0  0  0  0
   -7.1508   -0.3346   -0.1639 C   0  0  0  0  0  0  0  0  0  0  0  0
   -6.9464    0.9022   -0.0160 O   0  0  0  0  0  0  0  0  0  0  0  0
   -7.9953   -1.0326    0.7646 N   0  0  0  0  0  0  0  0  0  0  0  0
   -8.7805   -0.3381    1.7823 C   0  0  0  0  0  0  0  0  0  0  0  0
   -9.9196    0.4095    1.1411 C   0  0  0  0  0  0  0  0  0  0  0  0
   -9.8913    1.8122    1.0612 C   0  0  0  0  0  0  0  0  0  0  0  0
  -10.9374    2.5045    0.4443 C   0  0  0  0  0  0  0  0  0  0  0  0
  -12.0161    1.8038   -0.1006 C   0  0  0  0  0  0  0  0  0  0  0  0
  -12.0509    0.4083   -0.0315 C   0  0  0  0  0  0  0  0  0  0  0  0
  -13.0981   -0.2677   -0.5657 F   0  0  0  0  0  0  0  0  0  0  0  0
  -11.0064   -0.2904    0.5849 C   0  0  0  0  0  0  0  0  0  0  0  0
  -11.0505   -1.6462    0.6377 F   0  0  0  0  0  0  0  0  0  0  0  0
   -5.0951   -1.4986   -0.7752 C   0  0  0  0  0  0  0  0  0  0  0  0
   -4.9100   -2.4108    0.0753 O   0  0  0  0  0  0  0  0  0  0  0  0
   -2.3129   -0.9247    0.3886 C   0  0  0  0  0  0  0  0  0  0  0  0
   -1.0086   -0.8959    0.7641 N   0  0  0  0  0  0  0  0  0  0  0  0
    1.7298   -0.8657    1.6898 C   0  0  0  0  0  0  0  0  0  0  0  0
    2.9439    0.0052    2.0833 C   0  0  0  0  0  0  0  0  0  0  0  0
    6.1546   -0.3527    1.6443 C   0  0  0  0  0  0  0  0  0  0  0  0
    6.7798   -0.8266    0.4636 O   0  0  0  0  0  0  0  0  0  0  0  0
    7.5163    0.1691   -0.2488 C   0  0  2  0  0  0  0  0  0  0  0  0
    9.0000   -0.1486   -0.2199 C   0  0  0  0  0  0  0  0  0  0  0  0
    9.6334   -0.5107    0.9844 C   0  0  0  0  0  0  0  0  0  0  0  0
   11.0063   -0.7735    1.0143 C   0  0  0  0  0  0  0  0  0  0  0  0
   11.6028   -1.1269    2.1794 F   0  0  0  0  0  0  0  0  0  0  0  0
   11.7649   -0.6689   -0.1529 C   0  0  0  0  0  0  0  0  0  0  0  0
   11.1535   -0.2976   -1.3515 C   0  0  0  0  0  0  0  0  0  0  0  0
    9.7806   -0.0332   -1.3899 C   0  0  0  0  0  0  0  0  0  0  0  0
    9.2187    0.3390   -2.5682 F   0  0  0  0  0  0  0  0  0  0  0  0
    7.6445    3.5486   -0.4662 H   0  0  0  0  0  0  0  0  0  0  0  0
    7.2460    2.4804   -1.7074 H   0  0  0  0  0  0  0  0  0  0  0  0
    7.7603    1.8386    1.1510 H   0  0  0  0  0  0  0  0  0  0  0  0
    5.2336    1.7533   -0.6158 H   0  0  0  0  0  0  0  0  0  0  0  0
    5.5450    2.8694    0.7403 H   0  0  0  0  0  0  0  0  0  0  0  0
    5.0629    1.3590    2.3385 H   0  0  0  0  0  0  0  0  0  0  0  0
    4.0566   -1.6667    0.3091 H   0  0  0  0  0  0  0  0  0  0  0  0
    4.5511   -0.4349   -0.9095 H   0  0  0  0  0  0  0  0  0  0  0  0
    2.3299   -1.6158   -1.3817 H   0  0  0  0  0  0  0  0  0  0  0  0
    2.3091    0.1906   -1.4003 H   0  0  0  0  0  0  0  0  0  0  0  0
   -1.8318   -0.4507   -2.9331 H   0  0  0  0  0  0  0  0  0  0  0  0
   -4.4445    1.1728   -2.0597 H   0  0  0  0  0  0  0  0  0  0  0  0
   -4.0900   -0.0333   -3.3740 H   0  0  0  0  0  0  0  0  0  0  0  0
   -6.2608   -0.7790   -3.4283 H   0  0  0  0  0  0  0  0  0  0  0  0
   -6.6976    0.7173   -2.5418 H   0  0  0  0  0  0  0  0  0  0  0  0
   -8.0238   -1.9081   -2.0320 H   0  0  0  0  0  0  0  0  0  0  0  0
   -8.0505   -2.0752    0.7255 H   0  0  0  0  0  0  0  0  0  0  0  0
   -8.1218    0.3426    2.3645 H   0  0  0  0  0  0  0  0  0  0  0  0
   -9.1933   -1.0802    2.4996 H   0  0  0  0  0  0  0  0  0  0  0  0
   -9.0598    2.3701    1.4736 H   0  0  0  0  0  0  0  0  0  0  0  0
  -10.9105    3.5850    0.3867 H   0  0  0  0  0  0  0  0  0  0  0  0
  -12.8239    2.3432   -0.5784 H   0  0  0  0  0  0  0  0  0  0  0  0
   -3.0730   -1.0409    1.1483 H   0  0  0  0  0  0  0  0  0  0  0  0
    1.9744   -1.9362    1.8636 H   0  0  0  0  0  0  0  0  0  0  0  0
    0.8821   -0.6056    2.3593 H   0  0  0  0  0  0  0  0  0  0  0  0
    3.5166   -0.5311    2.8716 H   0  0  0  0  0  0  0  0  0  0  0  0
    2.5667    0.9479    2.5361 H   0  0  0  0  0  0  0  0  0  0  0  0
    6.9210   -0.0256    2.3791 H   0  0  0  0  0  0  0  0  0  0  0  0
    5.6259   -1.2001    2.1263 H   0  0  0  0  0  0  0  0  0  0  0  0
    7.1660    0.0809   -1.3004 H   0  0  0  0  0  0  0  0  0  0  0  0
    9.0717   -0.5924    1.9029 H   0  0  0  0  0  0  0  0  0  0  0  0
   12.8280   -0.8712   -0.1288 H   0  0  0  0  0  0  0  0  0  0  0  0
   11.7463   -0.2109   -2.2531 H   0  0  0  0  0  0  0  0  0  0  0  0
  1  2  1  0
  2  3  1  0
  3  4  1  0
  4  5  1  0
  5  6  1  0
  6  7  1  0
  7  8  1  0
  8  9  1  0
  9 10  2  0
 10 11  1  0
 11 12  2  0
 12 13  1  0
 13 14  1  0
 14 15  1  0
 15 16  1  0
 16 17  1  0
 16 18  1  0
 18 19  2  0
 18 20  1  0
 20 21  1  0
 21 22  1  0
 22 23  2  0
 23 24  1  0
 24 25  2  0
 25 26  1  0
 26 27  1  0
 26 28  2  0
 28 29  1  0
 16 30  1  0
 30 31  2  0
 12 32  1  0
 32 33  2  0
  8 34  1  0
 34 35  1  0
  4 36  1  0
 36 37  1  0
 37 38  1  0
 38 39  1  0
 39 40  2  0
 40 41  1  0
 41 42  1  0
 41 43  2  0
 43 44  1  0
 44 45  2  0
 45 46  1  0
 38  2  1  0
 45 39  1  0
 35  5  1  0
 33  9  1  0
 30 13  1  0
 28 22  1  0
  1 47  1  0
  1 48  1  0
  2 49  1  1
  3 50  1  0
  3 51  1  0
  4 52  1  1
  6 53  1  0
  6 54  1  0
  7 55  1  0
  7 56  1  0
 11 57  1  0
 14 58  1  0
 14 59  1  0
 15 60  1  0
 15 61  1  0
 17 62  1  0
 20 63  1  0
 21 64  1  0
 21 65  1  0
 23 66  1  0
 24 67  1  0
 25 68  1  0
 32 69  1  0
 34 70  1  0
 34 71  1  0
 35 72  1  0
 35 73  1  0
 36 74  1  0
 36 75  1  0
 38 76  1  6
 40 77  1  0
 43 78  1  0
 44 79  1  0
M  END
$$$$
