
     RDKit          3D

 44 46  0  0  0  0  0  0  0  0999 V2000
   -3.1490   -1.1526    1.7192 N   0  0  0  0  0  0  0  0  0  0  0  0
   -2.0104   -1.6791    0.9718 C   0  0  0  0  0  0  0  0  0  0  0  0
   -1.0831   -0.5397    0.4786 C   0  0  1  0  0  0  0  0  0  0  0  0
    0.2925   -1.1399    0.1158 C   0  0  0  0  0  0  0  0  0  0  0  0
    1.2049   -0.1339   -0.4447 N   0  0  0  0  0  0  0  0  0  0  0  0
    2.6294   -0.2742   -0.2615 C   0  0  0  0  0  0  0  0  0  0  0  0
    3.4212    0.8541    0.0066 C   0  0  0  0  0  0  0  0  0  0  0  0
    4.8001    0.7256    0.1941 C   0  0  0  0  0  0  0  0  0  0  0  0
    5.4177   -0.5330    0.1006 C   0  0  0  0  0  0  0  0  0  0  0  0
    6.8975   -0.6785    0.3519 C   0  0  0  0  0  0  0  0  0  0  0  0
    7.4099   -1.7532   -0.3542 F   0  0  0  0  0  0  0  0  0  0  0  0
    7.1117   -0.8831    1.7021 F   0  0  0  0  0  0  0  0  0  0  0  0
    7.5751    0.4616   -0.0446 F   0  0  0  0  0  0  0  0  0  0  0  0
    4.6214   -1.6660   -0.1375 C   0  0  0  0  0  0  0  0  0  0  0  0
    3.2422   -1.5372   -0.3243 C   0  0  0  0  0  0  0  0  0  0  0  0
    0.6874    0.8668   -1.3410 C   0  0  0  0  0  0  0  0  0  0  0  0
    1.4372    1.4004   -2.2035 O   0  0  0  0  0  0  0  0  0  0  0  0
   -0.7254    1.3430   -1.2055 C   0  0  0  0  0  0  0  0  0  0  0  0
   -1.6652    0.2088   -0.7557 C   0  0  2  0  0  0  0  0  0  0  0  0
   -3.0605    0.7680   -0.5093 C   0  0  0  0  0  0  0  0  0  0  0  0
   -3.2842    1.7153    0.5112 C   0  0  0  0  0  0  0  0  0  0  0  0
   -4.5655    2.2244    0.7403 C   0  0  0  0  0  0  0  0  0  0  0  0
   -4.7674    3.1308    1.7282 F   0  0  0  0  0  0  0  0  0  0  0  0
   -5.6382    1.7987   -0.0447 C   0  0  0  0  0  0  0  0  0  0  0  0
   -5.4325    0.8630   -1.0600 C   0  0  0  0  0  0  0  0  0  0  0  0
   -4.1538    0.3476   -1.2962 C   0  0  0  0  0  0  0  0  0  0  0  0
   -3.9902   -0.5625   -2.2897 F   0  0  0  0  0  0  0  0  0  0  0  0
   -2.7966   -0.7662    2.6251 H   0  0  0  0  0  0  0  0  0  0  0  0
   -3.7733   -1.9562    1.9596 H   0  0  0  0  0  0  0  0  0  0  0  0
   -2.3783   -2.2674    0.1021 H   0  0  0  0  0  0  0  0  0  0  0  0
   -1.4457   -2.3766    1.6316 H   0  0  0  0  0  0  0  0  0  0  0  0
   -0.9242    0.1816    1.3113 H   0  0  0  0  0  0  0  0  0  0  0  0
    0.1627   -1.9578   -0.6271 H   0  0  0  0  0  0  0  0  0  0  0  0
    0.7420   -1.5778    1.0351 H   0  0  0  0  0  0  0  0  0  0  0  0
    2.9657    1.8330    0.0879 H   0  0  0  0  0  0  0  0  0  0  0  0
    5.3830    1.6103    0.4175 H   0  0  0  0  0  0  0  0  0  0  0  0
    5.0655   -2.6527   -0.1790 H   0  0  0  0  0  0  0  0  0  0  0  0
    2.6549   -2.4237   -0.5256 H   0  0  0  0  0  0  0  0  0  0  0  0
   -0.7281    2.1731   -0.4679 H   0  0  0  0  0  0  0  0  0  0  0  0
   -1.0780    1.7469   -2.1801 H   0  0  0  0  0  0  0  0  0  0  0  0
   -1.7052   -0.5227   -1.5938 H   0  0  0  0  0  0  0  0  0  0  0  0
   -2.4693    2.0527    1.1382 H   0  0  0  0  0  0  0  0  0  0  0  0
   -6.6305    2.1927    0.1334 H   0  0  0  0  0  0  0  0  0  0  0  0
   -6.2675    0.5354   -1.6658 H   0  0  0  0  0  0  0  0  0  0  0  0
  1  2  1  0
  2  3  1  0
  3  4  1  0
  4  5  1  0
  5  6  1  0
  6  7  2  0
  7  8  1  0
  8  9  2  0
  9 10  1  0
 10 11  1  0
 10 12  1  0
 10 13  1  0
  9 14  1  0
 14 15  2  0
  5 16  1  0
 16 17  2  0
 16 18  1  0
 18 19  1  0
 19 20  1  0
 20 21  2  0
 21 22  1  0
 22 23  1  0
 22 24  2  0
 24 25  1  0
 25 26  2  0
 26 27  1  0
 19  3  1  0
 26 20  1  0
 15  6  1  0
  1 28  1  0
  1 29  1  0
  2 30  1  0
  2 31  1  0
  3 32  1  1
  4 33  1  0
  4 34  1  0
  7 35  1  0
  8 36  1  0
 14 37  1  0
 15 38  1  0
 18 39  1  0
 18 40  1  0
 19 41  1  6
 21 42  1  0
 24 43  1  0
 25 44  1  0
M  END
$$$$
