
     RDKit          3D

 78 82  0  0  0  0  0  0  0  0999 V2000
   -7.4245    3.1302    0.7109 C   0  0  0  0  0  0  0  0  0  0  0  0
   -6.0747    2.6843    0.3685 C   0  0  0  0  0  0  0  0  0  0  0  0
   -4.9659    2.3073    0.0843 C   0  0  0  0  0  0  0  0  0  0  0  0
   -3.6253    1.8252   -0.2668 C   0  0  0  0  0  0  0  0  0  0  0  0
   -3.3620    0.5376    0.3908 N   0  0  0  0  0  0  0  0  0  0  0  0
   -4.0911   -0.6093    0.2666 C   0  0  0  0  0  0  0  0  0  0  0  0
   -5.2357   -0.7497   -0.5911 N   0  0  0  0  0  0  0  0  0  0  0  0
   -6.4474   -1.3800   -0.0518 C   0  0  0  0  0  0  0  0  0  0  0  0
   -7.6623   -1.0479   -0.9232 C   0  0  0  0  0  0  0  0  0  0  0  0
   -7.4549   -1.4530   -2.3955 C   0  0  0  0  0  0  0  0  0  0  0  0
   -5.9693   -1.4391   -2.8414 C   0  0  1  0  0  0  0  0  0  0  0  0
   -5.8433   -1.1497   -4.2712 N   0  0  0  0  0  0  0  0  0  0  0  0
   -5.1375   -0.4393   -2.0244 C   0  0  0  0  0  0  0  0  0  0  0  0
   -3.6896   -1.6057    1.0941 N   0  0  0  0  0  0  0  0  0  0  0  0
   -2.6517   -1.0515    1.7456 C   0  0  0  0  0  0  0  0  0  0  0  0
   -2.4466    0.2269    1.3380 C   0  0  0  0  0  0  0  0  0  0  0  0
   -1.4108    0.9748    1.9010 C   0  0  0  0  0  0  0  0  0  0  0  0
   -1.1949    2.1602    1.5323 O   0  0  0  0  0  0  0  0  0  0  0  0
   -0.6159    0.3804    2.8576 N   0  0  0  0  0  0  0  0  0  0  0  0
    0.5143    1.1260    3.4529 C   0  0  0  0  0  0  0  0  0  0  0  0
    1.8556    0.7323    2.8133 C   0  0  0  0  0  0  0  0  0  0  0  0
    1.9435    1.1406    1.3338 C   0  0  0  0  0  0  0  0  0  0  0  0
    3.2347    0.7289    0.7407 N   0  0  0  0  0  0  0  0  0  0  0  0
    3.1716    0.7996   -0.7293 C   0  0  0  0  0  0  0  0  0  0  0  0
    4.3995    0.1019   -1.3126 C   0  0  0  0  0  0  0  0  0  0  0  0
    5.6271    0.5269   -0.6273 N   0  0  0  0  0  0  0  0  0  0  0  0
    6.8917   -0.0330   -1.0391 C   0  0  0  0  0  0  0  0  0  0  0  0
    8.0616    0.4696   -0.5573 N   0  0  0  0  0  0  0  0  0  0  0  0
    9.2609   -0.0431   -0.9347 C   0  0  0  0  0  0  0  0  0  0  0  0
    9.3111   -1.1135   -1.8406 C   0  0  0  0  0  0  0  0  0  0  0  0
   10.5126   -1.6923   -2.2740 O   0  0  0  0  0  0  0  0  0  0  0  0
   11.8039   -1.2672   -1.8510 C   0  0  0  0  0  0  0  0  0  0  0  0
    8.1024   -1.6149   -2.3244 C   0  0  0  0  0  0  0  0  0  0  0  0
    6.9262   -1.0711   -1.9194 N   0  0  0  0  0  0  0  0  0  0  0  0
    5.5698    1.6502    0.3195 C   0  0  0  0  0  0  0  0  0  0  0  0
    4.3685    1.5237    1.2826 C   0  0  0  0  0  0  0  0  0  0  0  0
   -0.8534   -0.9267    3.2479 C   0  0  0  0  0  0  0  0  0  0  0  0
   -0.1076   -1.4687    4.1124 O   0  0  0  0  0  0  0  0  0  0  0  0
   -1.8929   -1.6463    2.7048 N   0  0  0  0  0  0  0  0  0  0  0  0
   -2.1313   -3.0438    3.0919 C   0  0  0  0  0  0  0  0  0  0  0  0
   -7.3824    3.7848    1.6056 H   0  0  0  0  0  0  0  0  0  0  0  0
   -8.0603    2.2471    0.9278 H   0  0  0  0  0  0  0  0  0  0  0  0
   -7.8549    3.6947   -0.1416 H   0  0  0  0  0  0  0  0  0  0  0  0
   -2.8976    2.6014    0.0217 H   0  0  0  0  0  0  0  0  0  0  0  0
   -3.5473    1.7098   -1.3660 H   0  0  0  0  0  0  0  0  0  0  0  0
   -6.3041   -2.4813   -0.0046 H   0  0  0  0  0  0  0  0  0  0  0  0
   -6.6387   -1.0049    0.9776 H   0  0  0  0  0  0  0  0  0  0  0  0
   -7.8426    0.0487   -0.8697 H   0  0  0  0  0  0  0  0  0  0  0  0
   -8.5636   -1.5562   -0.5176 H   0  0  0  0  0  0  0  0  0  0  0  0
   -8.0581   -0.7665   -3.0292 H   0  0  0  0  0  0  0  0  0  0  0  0
   -7.8601   -2.4767   -2.5519 H   0  0  0  0  0  0  0  0  0  0  0  0
   -5.5423   -2.4507   -2.6553 H   0  0  0  0  0  0  0  0  0  0  0  0
   -6.3839   -1.8685   -4.8055 H   0  0  0  0  0  0  0  0  0  0  0  0
   -6.2730   -0.2179   -4.4761 H   0  0  0  0  0  0  0  0  0  0  0  0
   -5.5101    0.5916   -2.2056 H   0  0  0  0  0  0  0  0  0  0  0  0
   -4.0776   -0.5015   -2.3570 H   0  0  0  0  0  0  0  0  0  0  0  0
    0.5642    0.9219    4.5451 H   0  0  0  0  0  0  0  0  0  0  0  0
    0.3701    2.2253    3.3700 H   0  0  0  0  0  0  0  0  0  0  0  0
    2.0110   -0.3642    2.9032 H   0  0  0  0  0  0  0  0  0  0  0  0
    2.6610    1.2364    3.3878 H   0  0  0  0  0  0  0  0  0  0  0  0
    1.1124    0.6304    0.7999 H   0  0  0  0  0  0  0  0  0  0  0  0
    1.7886    2.2381    1.2250 H   0  0  0  0  0  0  0  0  0  0  0  0
    3.1293    1.8591   -1.0710 H   0  0  0  0  0  0  0  0  0  0  0  0
    2.2690    0.2754   -1.1147 H   0  0  0  0  0  0  0  0  0  0  0  0
    4.2751   -0.9963   -1.1880 H   0  0  0  0  0  0  0  0  0  0  0  0
    4.4744    0.3307   -2.3978 H   0  0  0  0  0  0  0  0  0  0  0  0
   10.1645    0.3872   -0.5264 H   0  0  0  0  0  0  0  0  0  0  0  0
   11.9032   -1.3848   -0.7512 H   0  0  0  0  0  0  0  0  0  0  0  0
   11.9701   -0.2075   -2.1384 H   0  0  0  0  0  0  0  0  0  0  0  0
   12.5727   -1.8948   -2.3465 H   0  0  0  0  0  0  0  0  0  0  0  0
    8.0971   -2.4396   -3.0249 H   0  0  0  0  0  0  0  0  0  0  0  0
    5.4793    2.5948   -0.2599 H   0  0  0  0  0  0  0  0  0  0  0  0
    6.4987    1.7199    0.9251 H   0  0  0  0  0  0  0  0  0  0  0  0
    4.7265    1.0217    2.2072 H   0  0  0  0  0  0  0  0  0  0  0  0
    4.0496    2.5520    1.5672 H   0  0  0  0  0  0  0  0  0  0  0  0
   -3.1808   -3.3472    2.8904 H   0  0  0  0  0  0  0  0  0  0  0  0
   -1.9581   -3.1844    4.1803 H   0  0  0  0  0  0  0  0  0  0  0  0
   -1.4473   -3.7086    2.5236 H   0  0  0  0  0  0  0  0  0  0  0  0
  1  2  1  0
  2  3  3  0
  3  4  1  0
  4  5  1  0
  5  6  1  0
  6  7  1  0
  7  8  1  0
  8  9  1  0
  9 10  1  0
 10 11  1  0
 11 12  1  0
 11 13  1  0
  6 14  2  0
 14 15  1  0
 15 16  2  0
 16 17  1  0
 17 18  2  0
 17 19  1  0
 19 20  1  0
 20 21  1  0
 21 22  1  0
 22 23  1  0
 23 24  1  0
 24 25  1  0
 25 26  1  0
 26 27  1  0
 27 28  2  0
 28 29  1  0
 29 30  2  0
 30 31  1  0
 31 32  1  0
 30 33  1  0
 33 34  2  0
 26 35  1  0
 35 36  1  0
 19 37  1  0
 37 38  2  0
 37 39  1  0
 39 40  1  0
 16  5  1  0
 36 23  1  0
 13  7  1  0
 39 15  1  0
 34 27  1  0
  1 41  1  0
  1 42  1  0
  1 43  1  0
  4 44  1  0
  4 45  1  0
  8 46  1  0
  8 47  1  0
  9 48  1  0
  9 49  1  0
 10 50  1  0
 10 51  1  0
 11 52  1  6
 12 53  1  0
 12 54  1  0
 13 55  1  0
 13 56  1  0
 20 57  1  0
 20 58  1  0
 21 59  1  0
 21 60  1  0
 22 61  1  0
 22 62  1  0
 24 63  1  0
 24 64  1  0
 25 65  1  0
 25 66  1  0
 29 67  1  0
 32 68  1  0
 32 69  1  0
 32 70  1  0
 33 71  1  0
 35 72  1  0
 35 73  1  0
 36 74  1  0
 36 75  1  0
 40 76  1  0
 40 77  1  0
 40 78  1  0
M  END
$$$$
