
     RDKit          3D

 36 36  0  0  0  0  0  0  0  0999 V2000
   -2.6445    1.7217    1.9024 C   0  0  0  0  0  0  0  0  0  0  0  0
   -1.8157    1.0873    0.7833 C   0  0  0  0  0  0  0  0  0  0  0  0
   -2.3706   -0.2838    0.3098 C   0  0  1  0  0  0  0  0  0  0  0  0
   -3.7225   -0.0954   -0.4072 C   0  0  0  0  0  0  0  0  0  0  0  0
   -1.3408   -1.0077   -0.6168 C   0  0  2  0  0  0  0  0  0  0  0  0
   -1.8569   -2.2788   -1.1377 N   0  0  0  0  0  0  0  0  0  0  0  0
   -0.0512   -1.2965    0.1231 C   0  0  0  0  0  0  0  0  0  0  0  0
   -0.0702   -2.1514    1.0511 O   0  0  0  0  0  0  0  0  0  0  0  0
    1.1832   -0.6095   -0.1739 N   0  0  0  0  0  0  0  0  0  0  0  0
    2.3815   -0.8011    0.6292 C   0  0  0  0  0  0  0  0  0  0  0  0
    3.4657    0.0360   -0.0428 C   0  0  2  0  0  0  0  0  0  0  0  0
    4.2995    0.7082    0.9490 N   0  0  0  0  0  0  0  0  0  0  0  0
    5.5158    0.5206    0.9876 N   0  0  0  0  0  0  0  0  0  0  0  0
    6.7308    0.3334    1.0264 N   0  0  0  0  0  0  0  0  0  0  0  0
    2.7168    1.0499   -0.9062 C   0  0  0  0  0  0  0  0  0  0  0  0
    1.3652    0.4022   -1.2085 C   0  0  1  0  0  0  0  0  0  0  0  0
    1.3725   -0.2337   -2.5366 C   0  0  0  0  0  0  0  0  0  0  0  0
    1.3770   -0.7342   -3.5800 N   0  0  0  0  0  0  0  0  0  0  0  0
   -3.6180    2.0887    1.5183 H   0  0  0  0  0  0  0  0  0  0  0  0
   -2.0961    2.5937    2.3173 H   0  0  0  0  0  0  0  0  0  0  0  0
   -2.8166    0.9929    2.7226 H   0  0  0  0  0  0  0  0  0  0  0  0
   -0.7868    0.9632    1.1819 H   0  0  0  0  0  0  0  0  0  0  0  0
   -1.7560    1.7925   -0.0743 H   0  0  0  0  0  0  0  0  0  0  0  0
   -2.5462   -0.9222    1.2048 H   0  0  0  0  0  0  0  0  0  0  0  0
   -4.4566    0.4113    0.2504 H   0  0  0  0  0  0  0  0  0  0  0  0
   -4.1723   -1.0751   -0.6682 H   0  0  0  0  0  0  0  0  0  0  0  0
   -3.5937    0.5040   -1.3338 H   0  0  0  0  0  0  0  0  0  0  0  0
   -1.1423   -0.3468   -1.4851 H   0  0  0  0  0  0  0  0  0  0  0  0
   -2.3716   -2.7933   -0.3859 H   0  0  0  0  0  0  0  0  0  0  0  0
   -2.5209   -2.0922   -1.9236 H   0  0  0  0  0  0  0  0  0  0  0  0
    2.1859   -0.4539    1.6680 H   0  0  0  0  0  0  0  0  0  0  0  0
    2.6721   -1.8741    0.6413 H   0  0  0  0  0  0  0  0  0  0  0  0
    4.0813   -0.6194   -0.7024 H   0  0  0  0  0  0  0  0  0  0  0  0
    3.2949    1.3081   -1.8217 H   0  0  0  0  0  0  0  0  0  0  0  0
    2.5433    1.9851   -0.3276 H   0  0  0  0  0  0  0  0  0  0  0  0
    0.5641    1.1702   -1.1588 H   0  0  0  0  0  0  0  0  0  0  0  0
  1  2  1  0
  2  3  1  0
  3  4  1  0
  3  5  1  0
  5  6  1  0
  5  7  1  0
  7  8  2  0
  7  9  1  0
  9 10  1  0
 10 11  1  0
 11 12  1  0
 12 13  2  0
 13 14  2  0
 11 15  1  0
 15 16  1  0
 16 17  1  0
 17 18  3  0
 16  9  1  0
  1 19  1  0
  1 20  1  0
  1 21  1  0
  2 22  1  0
  2 23  1  0
  3 24  1  1
  4 25  1  0
  4 26  1  0
  4 27  1  0
  5 28  1  6
  6 29  1  0
  6 30  1  0
 10 31  1  0
 10 32  1  0
 11 33  1  6
 15 34  1  0
 15 35  1  0
 16 36  1  6
M  CHG  2  13   1  14  -1
M  END
$$$$
