
     RDKit          3D

 67 71  0  0  0  0  0  0  0  0999 V2000
   -7.5272   -1.5641    0.2318 C   0  0  0  0  0  0  0  0  0  0  0  0
   -7.2718   -0.3459   -0.6774 C   0  0  0  0  0  0  0  0  0  0  0  0
   -8.1176   -0.5061   -1.9577 C   0  0  0  0  0  0  0  0  0  0  0  0
   -7.7023    0.9529    0.0325 C   0  0  0  0  0  0  0  0  0  0  0  0
   -5.8448   -0.2761   -1.0503 N   0  0  0  0  0  0  0  0  0  0  0  0
   -4.7527   -0.1269   -0.1247 C   0  0  0  0  0  0  0  0  0  0  0  0
   -4.9747   -0.0443    1.1121 O   0  0  0  0  0  0  0  0  0  0  0  0
   -3.4051   -0.0730   -0.6272 N   0  0  0  0  0  0  0  0  0  0  0  0
   -2.1922    0.0764    0.2004 C   0  0  0  0  0  0  0  0  0  0  0  0
   -2.0507   -1.1131    1.1877 C   0  0  0  0  0  0  0  0  0  0  0  0
   -0.7641   -0.9518    2.0235 C   0  0  0  0  0  0  0  0  0  0  0  0
   -0.8214    0.3780    2.8076 C   0  0  0  0  0  0  0  0  0  0  0  0
   -0.9373    1.5612    1.8211 C   0  0  0  0  0  0  0  0  0  0  0  0
    0.2902    1.5763    0.8857 C   0  0  0  0  0  0  0  0  0  0  0  0
    0.3752    0.2407    0.0924 C   0  0  0  0  0  0  0  0  0  0  0  0
    1.5103    0.2689   -0.8649 N   0  0  0  0  0  0  0  0  0  0  0  0
    2.8510    0.1626   -0.2629 C   0  0  0  0  0  0  0  0  0  0  0  0
    3.9104    0.5619   -1.2543 C   0  0  0  0  0  0  0  0  0  0  0  0
    3.5841    1.1754   -2.3074 O   0  0  0  0  0  0  0  0  0  0  0  0
    5.2979    0.2967   -0.9916 N   0  0  0  0  0  0  0  0  0  0  0  0
    5.8035   -0.3469    0.2238 C   0  0  0  0  0  0  0  0  0  0  0  0
    7.2720   -0.3369    0.0203 C   0  0  0  0  0  0  0  0  0  0  0  0
    8.2594   -0.8283    0.8756 C   0  0  0  0  0  0  0  0  0  0  0  0
    9.6030   -0.7173    0.4824 C   0  0  0  0  0  0  0  0  0  0  0  0
    9.9353   -0.1216   -0.7502 C   0  0  0  0  0  0  0  0  0  0  0  0
   11.2348   -0.0183   -1.1223 F   0  0  0  0  0  0  0  0  0  0  0  0
    8.9244    0.3658   -1.5951 C   0  0  0  0  0  0  0  0  0  0  0  0
    7.5961    0.2446   -1.1839 C   0  0  0  0  0  0  0  0  0  0  0  0
    6.3763    0.6841   -1.9032 C   0  0  0  0  0  0  0  0  0  0  0  0
    0.4670   -0.9493    1.0929 C   0  0  0  0  0  0  0  0  0  0  0  0
   -0.9423    0.0894   -0.7235 C   0  0  0  0  0  0  0  0  0  0  0  0
   -2.2258    1.4130    0.9872 C   0  0  0  0  0  0  0  0  0  0  0  0
   -7.0227   -1.4541    1.2131 H   0  0  0  0  0  0  0  0  0  0  0  0
   -7.1511   -2.4907   -0.2527 H   0  0  0  0  0  0  0  0  0  0  0  0
   -8.6147   -1.6849    0.4273 H   0  0  0  0  0  0  0  0  0  0  0  0
   -7.9565    0.3566   -2.6398 H   0  0  0  0  0  0  0  0  0  0  0  0
   -7.8319   -1.4345   -2.4979 H   0  0  0  0  0  0  0  0  0  0  0  0
   -9.2011   -0.5623   -1.7151 H   0  0  0  0  0  0  0  0  0  0  0  0
   -7.4520    1.8350   -0.5953 H   0  0  0  0  0  0  0  0  0  0  0  0
   -7.1982    1.0685    1.0133 H   0  0  0  0  0  0  0  0  0  0  0  0
   -8.7982    0.9520    0.2184 H   0  0  0  0  0  0  0  0  0  0  0  0
   -5.5918   -0.3388   -2.0631 H   0  0  0  0  0  0  0  0  0  0  0  0
   -3.2912   -0.1464   -1.6640 H   0  0  0  0  0  0  0  0  0  0  0  0
   -2.0188   -2.0733    0.6267 H   0  0  0  0  0  0  0  0  0  0  0  0
   -2.9174   -1.1662    1.8785 H   0  0  0  0  0  0  0  0  0  0  0  0
   -0.6819   -1.7985    2.7395 H   0  0  0  0  0  0  0  0  0  0  0  0
    0.0931    0.4913    3.4304 H   0  0  0  0  0  0  0  0  0  0  0  0
   -1.6929    0.3735    3.4987 H   0  0  0  0  0  0  0  0  0  0  0  0
   -0.9767    2.5145    2.3921 H   0  0  0  0  0  0  0  0  0  0  0  0
    1.1936    1.7377    1.5085 H   0  0  0  0  0  0  0  0  0  0  0  0
    0.2182    2.4347    0.1818 H   0  0  0  0  0  0  0  0  0  0  0  0
    1.4130   -0.5321   -1.5340 H   0  0  0  0  0  0  0  0  0  0  0  0
    2.9570    0.8252    0.6172 H   0  0  0  0  0  0  0  0  0  0  0  0
    3.0386   -0.8864    0.0535 H   0  0  0  0  0  0  0  0  0  0  0  0
    5.4306   -1.3904    0.2969 H   0  0  0  0  0  0  0  0  0  0  0  0
    5.5301    0.2468    1.1220 H   0  0  0  0  0  0  0  0  0  0  0  0
    7.9965   -1.2850    1.8210 H   0  0  0  0  0  0  0  0  0  0  0  0
   10.3853   -1.0915    1.1300 H   0  0  0  0  0  0  0  0  0  0  0  0
    9.1700    0.8252   -2.5439 H   0  0  0  0  0  0  0  0  0  0  0  0
    6.2775    0.1481   -2.8712 H   0  0  0  0  0  0  0  0  0  0  0  0
    6.3852    1.7853   -2.0493 H   0  0  0  0  0  0  0  0  0  0  0  0
    0.5253   -1.9125    0.5395 H   0  0  0  0  0  0  0  0  0  0  0  0
    1.3786   -0.8681    1.7233 H   0  0  0  0  0  0  0  0  0  0  0  0
   -1.0246    0.9252   -1.4546 H   0  0  0  0  0  0  0  0  0  0  0  0
   -0.9133   -0.8548   -1.3129 H   0  0  0  0  0  0  0  0  0  0  0  0
   -2.3205    2.2687    0.2826 H   0  0  0  0  0  0  0  0  0  0  0  0
   -3.0981    1.4542    1.6718 H   0  0  0  0  0  0  0  0  0  0  0  0
  1  2  1  0
  2  3  1  0
  2  4  1  0
  2  5  1  0
  5  6  1  0
  6  7  2  0
  6  8  1  0
  8  9  1  0
  9 10  1  0
 10 11  1  0
 11 12  1  0
 12 13  1  0
 13 14  1  0
 14 15  1  0
 15 16  1  0
 16 17  1  0
 17 18  1  0
 18 19  2  0
 18 20  1  0
 20 21  1  0
 21 22  1  0
 22 23  2  0
 23 24  1  0
 24 25  2  0
 25 26  1  0
 25 27  1  0
 27 28  2  0
 28 29  1  0
 15 30  1  0
 15 31  1  0
 13 32  1  0
 31  9  1  0
 32  9  1  0
 30 11  1  0
 29 20  1  0
 28 22  1  0
  1 33  1  0
  1 34  1  0
  1 35  1  0
  3 36  1  0
  3 37  1  0
  3 38  1  0
  4 39  1  0
  4 40  1  0
  4 41  1  0
  5 42  1  0
  8 43  1  0
 10 44  1  0
 10 45  1  0
 11 46  1  0
 12 47  1  0
 12 48  1  0
 13 49  1  0
 14 50  1  0
 14 51  1  0
 16 52  1  0
 17 53  1  0
 17 54  1  0
 21 55  1  0
 21 56  1  0
 23 57  1  0
 24 58  1  0
 27 59  1  0
 29 60  1  0
 29 61  1  0
 30 62  1  0
 30 63  1  0
 31 64  1  0
 31 65  1  0
 32 66  1  0
 32 67  1  0
M  END
$$$$
