
     RDKit          3D

 52 54  0  0  0  0  0  0  0  0999 V2000
   -5.7923   -2.4291   -1.7617 C   0  0  0  0  0  0  0  0  0  0  0  0
   -5.1096   -1.6940   -0.6118 C   0  0  0  0  0  0  0  0  0  0  0  0
   -4.7769   -0.2480   -1.0007 C   0  0  0  0  0  0  0  0  0  0  0  0
   -4.2345    0.6023    0.1679 C   0  0  0  0  0  0  0  0  0  0  0  0
   -2.8466    0.2083    0.7470 C   0  0  2  0  0  0  0  0  0  0  0  0
   -1.8120   -0.1648   -0.3301 C   0  0  0  0  0  0  0  0  0  0  0  0
   -0.5169   -0.4067    0.3173 N   0  0  0  0  0  0  0  0  0  0  0  0
    0.6538    0.3293   -0.0840 C   0  0  0  0  0  0  0  0  0  0  0  0
    1.8615   -0.3400   -0.3389 C   0  0  0  0  0  0  0  0  0  0  0  0
    3.0008    0.3759   -0.7172 C   0  0  0  0  0  0  0  0  0  0  0  0
    2.9537    1.7765   -0.8297 C   0  0  0  0  0  0  0  0  0  0  0  0
    4.0715    2.5280   -1.2214 O   0  0  0  0  0  0  0  0  0  0  0  0
    5.4078    2.2014   -0.9472 C   0  0  0  0  0  0  0  0  0  0  0  0
    6.3994    2.6141   -1.8462 C   0  0  0  0  0  0  0  0  0  0  0  0
    7.7443    2.3206   -1.5995 C   0  0  0  0  0  0  0  0  0  0  0  0
    8.1081    1.6229   -0.4445 C   0  0  0  0  0  0  0  0  0  0  0  0
    7.1280    1.2244    0.4685 C   0  0  0  0  0  0  0  0  0  0  0  0
    5.7823    1.5163    0.2242 C   0  0  0  0  0  0  0  0  0  0  0  0
    1.7467    2.4418   -0.5908 C   0  0  0  0  0  0  0  0  0  0  0  0
    0.6064    1.7274   -0.2130 C   0  0  0  0  0  0  0  0  0  0  0  0
   -0.4373   -1.3208    1.4671 C   0  0  0  0  0  0  0  0  0  0  0  0
   -1.8078   -1.9244    1.8146 C   0  0  0  0  0  0  0  0  0  0  0  0
   -2.9338   -0.8593    1.8872 C   0  0  1  0  0  0  0  0  0  0  0  0
   -2.9432   -0.1948    3.1950 N   0  0  0  0  0  0  0  0  0  0  0  0
   -5.1303   -2.4491   -2.6536 H   0  0  0  0  0  0  0  0  0  0  0  0
   -6.0098   -3.4746   -1.4574 H   0  0  0  0  0  0  0  0  0  0  0  0
   -6.7494   -1.9307   -2.0257 H   0  0  0  0  0  0  0  0  0  0  0  0
   -5.7878   -1.7008    0.2689 H   0  0  0  0  0  0  0  0  0  0  0  0
   -4.1799   -2.2428   -0.3566 H   0  0  0  0  0  0  0  0  0  0  0  0
   -4.0658   -0.2344   -1.8537 H   0  0  0  0  0  0  0  0  0  0  0  0
   -5.7095    0.2411   -1.3591 H   0  0  0  0  0  0  0  0  0  0  0  0
   -4.9880    0.6304    0.9854 H   0  0  0  0  0  0  0  0  0  0  0  0
   -4.1562    1.6463   -0.2086 H   0  0  0  0  0  0  0  0  0  0  0  0
   -2.4481    1.1421    1.2071 H   0  0  0  0  0  0  0  0  0  0  0  0
   -2.1148   -1.0893   -0.8644 H   0  0  0  0  0  0  0  0  0  0  0  0
   -1.7395    0.6465   -1.0868 H   0  0  0  0  0  0  0  0  0  0  0  0
    1.9173   -1.4181   -0.2683 H   0  0  0  0  0  0  0  0  0  0  0  0
    3.9108   -0.1648   -0.9419 H   0  0  0  0  0  0  0  0  0  0  0  0
    6.1253    3.1570   -2.7419 H   0  0  0  0  0  0  0  0  0  0  0  0
    8.5044    2.6357   -2.3027 H   0  0  0  0  0  0  0  0  0  0  0  0
    9.1493    1.3977   -0.2536 H   0  0  0  0  0  0  0  0  0  0  0  0
    7.4116    0.6958    1.3694 H   0  0  0  0  0  0  0  0  0  0  0  0
    5.0397    1.2261    0.9557 H   0  0  0  0  0  0  0  0  0  0  0  0
    1.6957    3.5190   -0.6863 H   0  0  0  0  0  0  0  0  0  0  0  0
   -0.3093    2.2664   -0.0062 H   0  0  0  0  0  0  0  0  0  0  0  0
   -0.0461   -0.7673    2.3477 H   0  0  0  0  0  0  0  0  0  0  0  0
    0.2652   -2.1506    1.2420 H   0  0  0  0  0  0  0  0  0  0  0  0
   -1.7361   -2.4806    2.7743 H   0  0  0  0  0  0  0  0  0  0  0  0
   -2.0702   -2.6704    1.0327 H   0  0  0  0  0  0  0  0  0  0  0  0
   -3.8921   -1.4122    1.8030 H   0  0  0  0  0  0  0  0  0  0  0  0
   -3.1430   -0.9059    3.9358 H   0  0  0  0  0  0  0  0  0  0  0  0
   -1.9969    0.2041    3.3926 H   0  0  0  0  0  0  0  0  0  0  0  0
  1  2  1  0
  2  3  1  0
  3  4  1  0
  4  5  1  0
  5  6  1  0
  6  7  1  0
  7  8  1  0
  8  9  2  0
  9 10  1  0
 10 11  2  0
 11 12  1  0
 12 13  1  0
 13 14  2  0
 14 15  1  0
 15 16  2  0
 16 17  1  0
 17 18  2  0
 11 19  1  0
 19 20  2  0
  7 21  1  0
 21 22  1  0
 22 23  1  0
 23 24  1  0
 23  5  1  0
 20  8  1  0
 18 13  1  0
  1 25  1  0
  1 26  1  0
  1 27  1  0
  2 28  1  0
  2 29  1  0
  3 30  1  0
  3 31  1  0
  4 32  1  0
  4 33  1  0
  5 34  1  1
  6 35  1  0
  6 36  1  0
  9 37  1  0
 10 38  1  0
 14 39  1  0
 15 40  1  0
 16 41  1  0
 17 42  1  0
 18 43  1  0
 19 44  1  0
 20 45  1  0
 21 46  1  0
 21 47  1  0
 22 48  1  0
 22 49  1  0
 23 50  1  6
 24 51  1  0
 24 52  1  0
M  END
$$$$
