
     RDKit          3D

 58 59  0  0  0  0  0  0  0  0999 V2000
    8.2501   -1.4699    0.6688 C   0  0  0  0  0  0  0  0  0  0  0  0
    6.8097   -1.1236    0.4332 C   0  0  0  0  0  0  0  0  0  0  0  0
    5.7994   -2.0356    0.7698 C   0  0  0  0  0  0  0  0  0  0  0  0
    4.4551   -1.7002    0.5848 C   0  0  0  0  0  0  0  0  0  0  0  0
    4.0972   -0.4400    0.0724 C   0  0  0  0  0  0  0  0  0  0  0  0
    2.6688   -0.0827   -0.1234 C   0  0  0  0  0  0  0  0  0  0  0  0
    1.7601   -1.0253   -0.6348 C   0  0  0  0  0  0  0  0  0  0  0  0
    0.4162   -0.6898   -0.8186 C   0  0  0  0  0  0  0  0  0  0  0  0
   -0.0502    0.5953   -0.4954 C   0  0  0  0  0  0  0  0  0  0  0  0
   -1.5177    0.9427   -0.6870 C   0  0  2  0  0  0  0  0  0  0  0  0
   -1.6579    2.0950   -1.6961 C   0  0  0  0  0  0  0  0  0  0  0  0
   -2.2070    1.2724    0.6711 C   0  0  2  0  0  0  0  0  0  0  0  0
   -1.9902    0.2310    1.6838 N   0  0  0  0  0  0  0  0  0  0  0  0
   -3.6891    1.5510    0.5081 C   0  0  0  0  0  0  0  0  0  0  0  0
   -4.0706    2.7514    0.5835 O   0  0  0  0  0  0  0  0  0  0  0  0
   -4.6667    0.5283    0.2158 N   0  0  0  0  0  0  0  0  0  0  0  0
   -6.0345    0.8612   -0.1525 C   0  0  0  0  0  0  0  0  0  0  0  0
   -6.8079   -0.4496   -0.1251 C   0  0  0  0  0  0  0  0  0  0  0  0
   -5.7531   -1.5496   -0.1583 C   0  0  2  0  0  0  0  0  0  0  0  0
   -6.1237   -2.6194    0.6393 F   0  0  0  0  0  0  0  0  0  0  0  0
   -4.4675   -0.9074    0.3470 C   0  0  0  0  0  0  0  0  0  0  0  0
    0.8583    1.5382    0.0184 C   0  0  0  0  0  0  0  0  0  0  0  0
    2.2024    1.2030    0.2009 C   0  0  0  0  0  0  0  0  0  0  0  0
    5.1146    0.4779   -0.2460 C   0  0  0  0  0  0  0  0  0  0  0  0
    6.4585    0.1404   -0.0612 C   0  0  0  0  0  0  0  0  0  0  0  0
    0.8277    0.8427   -1.2503 O   0  0  0  0  0  0  0  0  0  0  0  0
    0.4779    0.1090   -0.2873 C   0  0  0  0  0  0  0  0  0  0  0  0
    1.4339   -0.6269    0.4065 O   0  0  0  0  0  0  0  0  0  0  0  0
   -0.9517    0.0753    0.1464 C   0  0  0  0  0  0  0  0  0  0  0  0
   -1.2104   -1.0976    0.8317 F   0  0  0  0  0  0  0  0  0  0  0  0
   -1.7823    0.1441   -0.9575 F   0  0  0  0  0  0  0  0  0  0  0  0
   -1.2047    1.1517    0.9755 F   0  0  0  0  0  0  0  0  0  0  0  0
    8.9033   -0.9476   -0.0624 H   0  0  0  0  0  0  0  0  0  0  0  0
    8.4139   -2.5628    0.5556 H   0  0  0  0  0  0  0  0  0  0  0  0
    8.5397   -1.1646    1.6959 H   0  0  0  0  0  0  0  0  0  0  0  0
    6.0519   -3.0065    1.1784 H   0  0  0  0  0  0  0  0  0  0  0  0
    3.6945   -2.4191    0.8626 H   0  0  0  0  0  0  0  0  0  0  0  0
    2.0920   -2.0189   -0.9088 H   0  0  0  0  0  0  0  0  0  0  0  0
   -0.2605   -1.4369   -1.2143 H   0  0  0  0  0  0  0  0  0  0  0  0
   -2.0348    0.0726   -1.1420 H   0  0  0  0  0  0  0  0  0  0  0  0
   -2.7236    2.2387   -1.9731 H   0  0  0  0  0  0  0  0  0  0  0  0
   -1.0963    1.8599   -2.6258 H   0  0  0  0  0  0  0  0  0  0  0  0
   -1.2706    3.0465   -1.2743 H   0  0  0  0  0  0  0  0  0  0  0  0
   -1.7487    2.2126    1.0576 H   0  0  0  0  0  0  0  0  0  0  0  0
   -1.8854   -0.7047    1.2303 H   0  0  0  0  0  0  0  0  0  0  0  0
   -1.0839    0.4200    2.1712 H   0  0  0  0  0  0  0  0  0  0  0  0
   -6.4720    1.5808    0.5736 H   0  0  0  0  0  0  0  0  0  0  0  0
   -6.0466    1.3014   -1.1732 H   0  0  0  0  0  0  0  0  0  0  0  0
   -7.3925   -0.5156    0.8192 H   0  0  0  0  0  0  0  0  0  0  0  0
   -7.5019   -0.5287   -0.9900 H   0  0  0  0  0  0  0  0  0  0  0  0
   -5.6134   -1.8992   -1.2052 H   0  0  0  0  0  0  0  0  0  0  0  0
   -4.3024   -1.1633    1.4158 H   0  0  0  0  0  0  0  0  0  0  0  0
   -3.6154   -1.2544   -0.2701 H   0  0  0  0  0  0  0  0  0  0  0  0
    0.5276    2.5336    0.2846 H   0  0  0  0  0  0  0  0  0  0  0  0
    2.8735    1.9451    0.6147 H   0  0  0  0  0  0  0  0  0  0  0  0
    4.8720    1.4521   -0.6516 H   0  0  0  0  0  0  0  0  0  0  0  0
    7.2253    0.8644   -0.3081 H   0  0  0  0  0  0  0  0  0  0  0  0
    2.4095   -0.5982    0.1349 H   0  0  0  0  0  0  0  0  0  0  0  0
  1  2  1  0
  2  3  2  0
  3  4  1  0
  4  5  2  0
  5  6  1  0
  6  7  2  0
  7  8  1  0
  8  9  2  0
  9 10  1  0
 10 11  1  0
 10 12  1  0
 12 13  1  0
 12 14  1  0
 14 15  2  0
 14 16  1  0
 16 17  1  0
 17 18  1  0
 18 19  1  0
 19 20  1  0
 19 21  1  0
  9 22  1  0
 22 23  2  0
  5 24  1  0
 24 25  2  0
 26 27  2  0
 27 28  1  0
 27 29  1  0
 29 30  1  0
 29 31  1  0
 29 32  1  0
 25  2  1  0
 23  6  1  0
 21 16  1  0
  1 33  1  0
  1 34  1  0
  1 35  1  0
  3 36  1  0
  4 37  1  0
  7 38  1  0
  8 39  1  0
 10 40  1  6
 11 41  1  0
 11 42  1  0
 11 43  1  0
 12 44  1  1
 13 45  1  0
 13 46  1  0
 17 47  1  0
 17 48  1  0
 18 49  1  0
 18 50  1  0
 19 51  1  6
 21 52  1  0
 21 53  1  0
 22 54  1  0
 23 55  1  0
 24 56  1  0
 25 57  1  0
 28 58  1  0
M  END
$$$$
