
     RDKit          3D

 55 57  0  0  0  0  0  0  0  0999 V2000
    3.5079   -0.0498    2.8173 N   0  0  0  0  0  0  0  0  0  0  0  0
    2.8876   -0.8625    1.7652 C   0  0  2  0  0  0  0  0  0  0  0  0
    3.9642   -1.5335    0.9324 C   0  0  0  0  0  0  0  0  0  0  0  0
    3.9364   -2.7890    0.8154 O   0  0  0  0  0  0  0  0  0  0  0  0
    4.9737   -0.7863    0.2260 N   0  0  0  0  0  0  0  0  0  0  0  0
    5.5025    0.5056    0.6379 C   0  0  0  0  0  0  0  0  0  0  0  0
    6.6914    0.7759   -0.2765 C   0  0  0  0  0  0  0  0  0  0  0  0
    6.5467   -0.1964   -1.4441 C   0  0  1  0  0  0  0  0  0  0  0  0
    7.7811   -0.6755   -1.8497 F   0  0  0  0  0  0  0  0  0  0  0  0
    5.6612   -1.3249   -0.9344 C   0  0  0  0  0  0  0  0  0  0  0  0
    1.9296   -0.0112    0.8755 C   0  0  1  0  0  0  0  0  0  0  0  0
    1.2178   -0.8697   -0.2166 C   0  0  0  0  0  0  0  0  0  0  0  0
   -0.1913   -1.2990    0.2083 C   0  0  0  0  0  0  0  0  0  0  0  0
   -1.1121   -0.0801    0.4574 C   0  0  2  0  0  0  0  0  0  0  0  0
   -1.8695    0.2332   -0.7588 N   0  0  0  0  0  0  0  0  0  0  0  0
   -3.1641   -0.3169   -1.0289 C   0  0  0  0  0  0  0  0  0  0  0  0
   -3.7380   -1.0483   -0.1755 O   0  0  0  0  0  0  0  0  0  0  0  0
   -3.7811   -0.0379   -2.2533 O   0  0  0  0  0  0  0  0  0  0  0  0
   -5.0840   -0.5039   -2.5985 C   0  0  0  0  0  0  0  0  0  0  0  0
   -6.1319    0.2364   -1.8128 C   0  0  0  0  0  0  0  0  0  0  0  0
   -6.8811   -0.4192   -0.8213 C   0  0  0  0  0  0  0  0  0  0  0  0
   -7.8392    0.2836   -0.0837 C   0  0  0  0  0  0  0  0  0  0  0  0
   -8.0533    1.6429   -0.3281 C   0  0  0  0  0  0  0  0  0  0  0  0
   -7.3084    2.3025   -1.3097 C   0  0  0  0  0  0  0  0  0  0  0  0
   -6.3492    1.6036   -2.0493 C   0  0  0  0  0  0  0  0  0  0  0  0
   -0.3337    1.1716    0.9294 C   0  0  0  0  0  0  0  0  0  0  0  0
    0.9059    0.7795    1.7387 C   0  0  0  0  0  0  0  0  0  0  0  0
    2.7859    0.1891    3.5341 H   0  0  0  0  0  0  0  0  0  0  0  0
    4.2047   -0.6418    3.3266 H   0  0  0  0  0  0  0  0  0  0  0  0
    2.2802   -1.6600    2.2538 H   0  0  0  0  0  0  0  0  0  0  0  0
    5.8408    0.4688    1.6953 H   0  0  0  0  0  0  0  0  0  0  0  0
    4.7354    1.2963    0.5100 H   0  0  0  0  0  0  0  0  0  0  0  0
    6.6998    1.8302   -0.6292 H   0  0  0  0  0  0  0  0  0  0  0  0
    7.6368    0.5685    0.2721 H   0  0  0  0  0  0  0  0  0  0  0  0
    6.0487    0.3159   -2.2966 H   0  0  0  0  0  0  0  0  0  0  0  0
    6.2730   -2.2022   -0.6303 H   0  0  0  0  0  0  0  0  0  0  0  0
    4.9272   -1.6272   -1.7129 H   0  0  0  0  0  0  0  0  0  0  0  0
    2.5410    0.7423    0.3355 H   0  0  0  0  0  0  0  0  0  0  0  0
    1.1327   -0.2713   -1.1508 H   0  0  0  0  0  0  0  0  0  0  0  0
    1.8014   -1.7742   -0.4839 H   0  0  0  0  0  0  0  0  0  0  0  0
   -0.6289   -1.9627   -0.5693 H   0  0  0  0  0  0  0  0  0  0  0  0
   -0.1129   -1.9006    1.1406 H   0  0  0  0  0  0  0  0  0  0  0  0
   -1.8187   -0.3541    1.2726 H   0  0  0  0  0  0  0  0  0  0  0  0
   -1.3907    0.7429   -1.5356 H   0  0  0  0  0  0  0  0  0  0  0  0
   -5.1495   -1.6023   -2.4362 H   0  0  0  0  0  0  0  0  0  0  0  0
   -5.2507   -0.3215   -3.6811 H   0  0  0  0  0  0  0  0  0  0  0  0
   -6.7229   -1.4709   -0.6173 H   0  0  0  0  0  0  0  0  0  0  0  0
   -8.4146   -0.2255    0.6787 H   0  0  0  0  0  0  0  0  0  0  0  0
   -8.7947    2.1854    0.2441 H   0  0  0  0  0  0  0  0  0  0  0  0
   -7.4730    3.3559   -1.4964 H   0  0  0  0  0  0  0  0  0  0  0  0
   -5.7747    2.1262   -2.8042 H   0  0  0  0  0  0  0  0  0  0  0  0
   -0.9990    1.8074    1.5531 H   0  0  0  0  0  0  0  0  0  0  0  0
   -0.0060    1.7850    0.0609 H   0  0  0  0  0  0  0  0  0  0  0  0
    1.3858    1.7010    2.1349 H   0  0  0  0  0  0  0  0  0  0  0  0
    0.5737    0.1686    2.6075 H   0  0  0  0  0  0  0  0  0  0  0  0
  1  2  1  0
  2  3  1  0
  3  4  2  0
  3  5  1  0
  5  6  1  0
  6  7  1  0
  7  8  1  0
  8  9  1  0
  8 10  1  0
  2 11  1  0
 11 12  1  0
 12 13  1  0
 13 14  1  0
 14 15  1  0
 15 16  1  0
 16 17  2  0
 16 18  1  0
 18 19  1  0
 19 20  1  0
 20 21  2  0
 21 22  1  0
 22 23  2  0
 23 24  1  0
 24 25  2  0
 14 26  1  0
 26 27  1  0
 10  5  1  0
 27 11  1  0
 25 20  1  0
  1 28  1  0
  1 29  1  0
  2 30  1  1
  6 31  1  0
  6 32  1  0
  7 33  1  0
  7 34  1  0
  8 35  1  6
 10 36  1  0
 10 37  1  0
 11 38  1  6
 12 39  1  0
 12 40  1  0
 13 41  1  0
 13 42  1  0
 14 43  1  1
 15 44  1  0
 19 45  1  0
 19 46  1  0
 21 47  1  0
 22 48  1  0
 23 49  1  0
 24 50  1  0
 25 51  1  0
 26 52  1  0
 26 53  1  0
 27 54  1  0
 27 55  1  0
M  END
$$$$
