
     RDKit          3D

 53 55  0  0  0  0  0  0  0  0999 V2000
    3.0704   -2.8063   -2.1113 N   0  0  0  0  0  0  0  0  0  0  0  0
    2.4297   -1.5149   -2.3681 C   0  0  1  0  0  0  0  0  0  0  0  0
    0.9997   -1.5158   -1.7797 C   0  0  0  0  0  0  0  0  0  0  0  0
    0.2084   -0.2782   -2.1344 C   0  0  0  0  0  0  0  0  0  0  0  0
    0.3339    0.2189   -3.2872 O   0  0  0  0  0  0  0  0  0  0  0  0
   -0.7376    0.3013   -1.2101 N   0  0  0  0  0  0  0  0  0  0  0  0
   -1.0260    1.7367   -1.2589 C   0  0  0  0  0  0  0  0  0  0  0  0
   -2.5346    1.9529   -1.2494 C   0  0  0  0  0  0  0  0  0  0  0  0
   -3.1919    1.2081   -0.1080 C   0  0  0  0  0  0  0  0  0  0  0  0
   -2.5926    0.0401    0.4141 C   0  0  0  0  0  0  0  0  0  0  0  0
   -3.2057   -0.6401    1.4168 N   0  0  0  0  0  0  0  0  0  0  0  0
   -4.4036   -0.2455    1.9151 C   0  0  0  0  0  0  0  0  0  0  0  0
   -5.0247   -0.9907    3.0541 C   0  0  0  0  0  0  0  0  0  0  0  0
   -4.5730   -0.4606    4.2478 F   0  0  0  0  0  0  0  0  0  0  0  0
   -6.4028   -0.8807    3.0002 F   0  0  0  0  0  0  0  0  0  0  0  0
   -4.6803   -2.3291    2.9916 F   0  0  0  0  0  0  0  0  0  0  0  0
   -5.0044    0.8654    1.4201 N   0  0  0  0  0  0  0  0  0  0  0  0
   -4.4515    1.5939    0.4135 C   0  0  0  0  0  0  0  0  0  0  0  0
   -5.1998    2.8060   -0.0824 C   0  0  0  0  0  0  0  0  0  0  0  0
   -6.4654    2.8529    0.4768 F   0  0  0  0  0  0  0  0  0  0  0  0
   -4.5198    3.9552    0.2768 F   0  0  0  0  0  0  0  0  0  0  0  0
   -5.3354    2.7574   -1.4581 F   0  0  0  0  0  0  0  0  0  0  0  0
   -1.2658   -0.4783   -0.0820 C   0  0  0  0  0  0  0  0  0  0  0  0
    3.3032   -0.3545   -1.8228 C   0  0  0  0  0  0  0  0  0  0  0  0
    3.3551   -0.3174   -0.3495 N   0  0  0  0  0  0  0  0  0  0  0  0
    4.0895   -1.3270    0.3762 C   0  0  0  0  0  0  0  0  0  0  0  0
    5.0072   -1.9767   -0.1934 O   0  0  0  0  0  0  0  0  0  0  0  0
    3.8038   -1.6052    1.8231 C   0  0  0  0  0  0  0  0  0  0  0  0
    2.6229   -0.7797    2.3355 C   0  0  0  0  0  0  0  0  0  0  0  0
    2.7589    0.6789    1.8969 C   0  0  0  0  0  0  0  0  0  0  0  0
    3.9663    1.1865    2.3531 F   0  0  0  0  0  0  0  0  0  0  0  0
    1.7349    1.4192    2.4636 F   0  0  0  0  0  0  0  0  0  0  0  0
    2.6722    0.7888    0.3583 C   0  0  1  0  0  0  0  0  0  0  0  0
    3.1708    2.0318   -0.0684 O   0  0  0  0  0  0  0  0  0  0  0  0
    2.4938   -3.5591   -2.5531 H   0  0  0  0  0  0  0  0  0  0  0  0
    3.9876   -2.8239   -2.6143 H   0  0  0  0  0  0  0  0  0  0  0  0
    2.3524   -1.3861   -3.4724 H   0  0  0  0  0  0  0  0  0  0  0  0
    1.0671   -1.6370   -0.6786 H   0  0  0  0  0  0  0  0  0  0  0  0
    0.4413   -2.3918   -2.1737 H   0  0  0  0  0  0  0  0  0  0  0  0
   -0.5988    2.2116   -2.1682 H   0  0  0  0  0  0  0  0  0  0  0  0
   -0.5697    2.2320   -0.3738 H   0  0  0  0  0  0  0  0  0  0  0  0
   -2.9623    1.5886   -2.2082 H   0  0  0  0  0  0  0  0  0  0  0  0
   -2.7179    3.0442   -1.1742 H   0  0  0  0  0  0  0  0  0  0  0  0
   -0.5361   -0.4516    0.7547 H   0  0  0  0  0  0  0  0  0  0  0  0
   -1.4119   -1.5354   -0.3927 H   0  0  0  0  0  0  0  0  0  0  0  0
    4.3345   -0.4319   -2.2302 H   0  0  0  0  0  0  0  0  0  0  0  0
    2.8953    0.6022   -2.2157 H   0  0  0  0  0  0  0  0  0  0  0  0
    4.7107   -1.3664    2.4197 H   0  0  0  0  0  0  0  0  0  0  0  0
    3.5790   -2.6855    1.9534 H   0  0  0  0  0  0  0  0  0  0  0  0
    2.5918   -0.8359    3.4452 H   0  0  0  0  0  0  0  0  0  0  0  0
    1.6712   -1.2032    1.9446 H   0  0  0  0  0  0  0  0  0  0  0  0
    1.5987    0.7521    0.0894 H   0  0  0  0  0  0  0  0  0  0  0  0
    4.1615    1.9841   -0.0219 H   0  0  0  0  0  0  0  0  0  0  0  0
  1  2  1  0
  2  3  1  0
  3  4  1  0
  4  5  2  0
  4  6  1  0
  6  7  1  0
  7  8  1  0
  8  9  1  0
  9 10  2  0
 10 11  1  0
 11 12  2  0
 12 13  1  0
 13 14  1  0
 13 15  1  0
 13 16  1  0
 12 17  1  0
 17 18  2  0
 18 19  1  0
 19 20  1  0
 19 21  1  0
 19 22  1  0
 10 23  1  0
  2 24  1  0
 24 25  1  0
 25 26  1  0
 26 27  2  0
 26 28  1  0
 28 29  1  0
 29 30  1  0
 30 31  1  0
 30 32  1  0
 30 33  1  0
 33 34  1  0
 23  6  1  0
 33 25  1  0
 18  9  1  0
  1 35  1  0
  1 36  1  0
  2 37  1  6
  3 38  1  0
  3 39  1  0
  7 40  1  0
  7 41  1  0
  8 42  1  0
  8 43  1  0
 23 44  1  0
 23 45  1  0
 24 46  1  0
 24 47  1  0
 28 48  1  0
 28 49  1  0
 29 50  1  0
 29 51  1  0
 33 52  1  1
 34 53  1  0
M  END
$$$$
