
     RDKit          3D

 50 52  0  0  0  0  0  0  0  0999 V2000
    5.0467    1.0280   -1.6740 C   0  0  0  0  0  0  0  0  0  0  0  0
    4.3017    1.8053   -0.5913 C   0  0  0  0  0  0  0  0  0  0  0  0
    3.1853    0.9989   -0.0368 N   0  0  0  0  0  0  0  0  0  0  0  0
    1.9333    1.1666   -0.5839 C   0  0  0  0  0  0  0  0  0  0  0  0
    1.8038    1.9068   -1.5964 O   0  0  0  0  0  0  0  0  0  0  0  0
    0.7954    0.5040   -0.0531 C   0  0  0  0  0  0  0  0  0  0  0  0
   -0.6522    0.7218   -0.6052 C   0  0  0  0  0  0  0  0  0  0  0  0
   -0.8748    2.1084   -1.2622 C   0  0  0  0  0  0  0  0  0  0  0  0
   -0.9777   -0.3521   -1.5706 N   0  0  0  0  0  0  0  0  0  0  0  0
   -0.0141   -0.3890   -2.6000 N   0  0  0  0  0  0  0  0  0  0  0  0
   -1.5987    0.6790    0.5308 N   0  0  0  0  0  0  0  0  0  0  0  0
   -2.9479    0.1655    0.5117 C   0  0  0  0  0  0  0  0  0  0  0  0
   -3.5149   -0.2859    1.7137 C   0  0  0  0  0  0  0  0  0  0  0  0
   -4.8220   -0.7794    1.7453 C   0  0  0  0  0  0  0  0  0  0  0  0
   -5.5954   -0.8068    0.5768 C   0  0  0  0  0  0  0  0  0  0  0  0
   -6.9845   -1.3722    0.6019 C   0  0  0  0  0  0  0  0  0  0  0  0
   -5.0363   -0.3583   -0.6280 C   0  0  0  0  0  0  0  0  0  0  0  0
   -3.7284    0.1349   -0.6607 C   0  0  0  0  0  0  0  0  0  0  0  0
    1.0150   -0.4854    0.9340 C   0  0  0  0  0  0  0  0  0  0  0  0
   -0.0583   -1.3069    1.3055 O   0  0  0  0  0  0  0  0  0  0  0  0
    2.2971   -0.6575    1.4988 C   0  0  0  0  0  0  0  0  0  0  0  0
    2.5133   -1.5422    2.5811 C   0  0  0  0  0  0  0  0  0  0  0  0
    3.7885   -1.7355    3.1039 C   0  0  0  0  0  0  0  0  0  0  0  0
    4.8710   -1.0554    2.5662 C   0  0  0  0  0  0  0  0  0  0  0  0
    4.6829   -0.1555    1.5202 C   0  0  0  0  0  0  0  0  0  0  0  0
    3.3914    0.0864    0.9801 C   0  0  0  0  0  0  0  0  0  0  0  0
    5.4586    0.0819   -1.2663 H   0  0  0  0  0  0  0  0  0  0  0  0
    4.3572    0.7885   -2.5109 H   0  0  0  0  0  0  0  0  0  0  0  0
    5.8842    1.6428   -2.0656 H   0  0  0  0  0  0  0  0  0  0  0  0
    3.9358    2.7594   -1.0294 H   0  0  0  0  0  0  0  0  0  0  0  0
    4.9950    2.1460    0.2041 H   0  0  0  0  0  0  0  0  0  0  0  0
   -0.4578    2.1724   -2.2869 H   0  0  0  0  0  0  0  0  0  0  0  0
   -0.4348    2.9095   -0.6302 H   0  0  0  0  0  0  0  0  0  0  0  0
   -1.9571    2.3314   -1.3597 H   0  0  0  0  0  0  0  0  0  0  0  0
   -0.9643   -1.2726   -1.0698 H   0  0  0  0  0  0  0  0  0  0  0  0
   -0.4311    0.1015   -3.4229 H   0  0  0  0  0  0  0  0  0  0  0  0
    0.1119   -1.3832   -2.9031 H   0  0  0  0  0  0  0  0  0  0  0  0
   -1.2746    1.0985    1.4334 H   0  0  0  0  0  0  0  0  0  0  0  0
   -2.9348   -0.2681    2.6280 H   0  0  0  0  0  0  0  0  0  0  0  0
   -5.2307   -1.1384    2.6819 H   0  0  0  0  0  0  0  0  0  0  0  0
   -6.9424   -2.4632    0.4020 H   0  0  0  0  0  0  0  0  0  0  0  0
   -7.4587   -1.2032    1.5922 H   0  0  0  0  0  0  0  0  0  0  0  0
   -7.6193   -0.8865   -0.1696 H   0  0  0  0  0  0  0  0  0  0  0  0
   -5.6157   -0.3838   -1.5428 H   0  0  0  0  0  0  0  0  0  0  0  0
   -3.3465    0.4998   -1.6024 H   0  0  0  0  0  0  0  0  0  0  0  0
    0.0212   -2.1647    1.8315 H   0  0  0  0  0  0  0  0  0  0  0  0
    1.7108   -2.0766    3.0634 H   0  0  0  0  0  0  0  0  0  0  0  0
    3.9373   -2.4186    3.9305 H   0  0  0  0  0  0  0  0  0  0  0  0
    5.8634   -1.2206    2.9663 H   0  0  0  0  0  0  0  0  0  0  0  0
    5.5719    0.3243    1.1436 H   0  0  0  0  0  0  0  0  0  0  0  0
  1  2  1  0
  2  3  1  0
  3  4  1  0
  4  5  2  0
  4  6  1  0
  6  7  1  0
  7  8  1  0
  7  9  1  0
  9 10  1  0
  7 11  1  0
 11 12  1  0
 12 13  2  0
 13 14  1  0
 14 15  2  0
 15 16  1  0
 15 17  1  0
 17 18  2  0
  6 19  2  0
 19 20  1  0
 19 21  1  0
 21 22  2  0
 22 23  1  0
 23 24  2  0
 24 25  1  0
 25 26  2  0
 26  3  1  0
 18 12  1  0
 26 21  1  0
  1 27  1  0
  1 28  1  0
  1 29  1  0
  2 30  1  0
  2 31  1  0
  8 32  1  0
  8 33  1  0
  8 34  1  0
  9 35  1  0
 10 36  1  0
 10 37  1  0
 11 38  1  0
 13 39  1  0
 14 40  1  0
 16 41  1  0
 16 42  1  0
 16 43  1  0
 17 44  1  0
 18 45  1  0
 20 46  1  0
 22 47  1  0
 23 48  1  0
 24 49  1  0
 25 50  1  0
M  END
$$$$
