
     RDKit          3D

 73 75  0  0  0  0  0  0  0  0999 V2000
   -4.1291    1.1202   -3.7600 C   0  0  0  0  0  0  0  0  0  0  0  0
   -4.2505    0.8897   -2.3605 O   0  0  0  0  0  0  0  0  0  0  0  0
   -5.1769    0.0124   -1.7734 C   0  0  0  0  0  0  0  0  0  0  0  0
   -6.1065   -0.7118   -2.5470 C   0  0  0  0  0  0  0  0  0  0  0  0
   -7.0122   -1.5803   -1.9339 C   0  0  0  0  0  0  0  0  0  0  0  0
   -7.0021   -1.7391   -0.5484 C   0  0  0  0  0  0  0  0  0  0  0  0
   -6.0872   -1.0286    0.2304 C   0  0  0  0  0  0  0  0  0  0  0  0
   -5.1742   -0.1457   -0.3712 C   0  0  0  0  0  0  0  0  0  0  0  0
   -4.1716    0.5883    0.4829 C   0  0  0  0  0  0  0  0  0  0  0  0
   -2.8571   -0.0408    0.3745 N   0  0  0  0  0  0  0  0  0  0  0  0
   -1.6566    0.5951   -0.1628 C   0  0  0  0  0  0  0  0  0  0  0  0
   -0.5156   -0.4502    0.0164 C   0  0  0  0  0  0  0  0  0  0  0  0
    0.6616    0.0658    0.8668 C   0  0  0  0  0  0  0  0  0  0  0  0
    1.4714   -1.0389    1.4260 N   0  0  0  0  0  0  0  0  0  0  0  0
    2.5711   -0.7611    2.3275 C   0  0  0  0  0  0  0  0  0  0  0  0
    3.0459   -1.6899    3.0374 O   0  0  0  0  0  0  0  0  0  0  0  0
    3.1325    0.6319    2.5079 C   0  0  0  0  0  0  0  0  0  0  0  0
    4.6763    0.6520    2.6099 C   0  0  2  0  0  0  0  0  0  0  0  0
    5.1361    2.0218    2.8515 N   0  0  0  0  0  0  0  0  0  0  0  0
    5.3778    0.0625    1.3589 C   0  0  0  0  0  0  0  0  0  0  0  0
    4.9868    0.7437    0.0660 C   0  0  0  0  0  0  0  0  0  0  0  0
    3.9892    0.1797   -0.7488 C   0  0  0  0  0  0  0  0  0  0  0  0
    3.5903    0.8178   -1.9265 C   0  0  0  0  0  0  0  0  0  0  0  0
    2.6163    0.2698   -2.6947 F   0  0  0  0  0  0  0  0  0  0  0  0
    4.1933    2.0188   -2.3097 C   0  0  0  0  0  0  0  0  0  0  0  0
    3.8083    2.6389   -3.4525 F   0  0  0  0  0  0  0  0  0  0  0  0
    5.1994    2.5785   -1.5178 C   0  0  0  0  0  0  0  0  0  0  0  0
    5.5993    1.9466   -0.3355 C   0  0  0  0  0  0  0  0  0  0  0  0
    6.5916    2.5014    0.4050 F   0  0  0  0  0  0  0  0  0  0  0  0
    1.1250   -2.4361    1.0980 C   0  0  0  0  0  0  0  0  0  0  0  0
   -0.3728   -2.6704    1.3115 C   0  0  0  0  0  0  0  0  0  0  0  0
   -1.1301   -1.5951    0.6791 N   0  0  0  0  0  0  0  0  0  0  0  0
   -2.4949   -1.3081    0.8836 C   0  0  0  0  0  0  0  0  0  0  0  0
   -3.2904   -2.0798    1.4827 O   0  0  0  0  0  0  0  0  0  0  0  0
   -2.6303   -1.5144    0.5683 O   0  0  0  0  0  0  0  0  0  0  0  0
   -1.8911   -0.5998    0.1172 C   0  0  0  0  0  0  0  0  0  0  0  0
   -2.4570    0.4604   -0.5867 O   0  0  0  0  0  0  0  0  0  0  0  0
   -0.4389   -0.6669    0.3417 C   0  0  0  0  0  0  0  0  0  0  0  0
    0.3931    0.2762   -0.1147 C   0  0  0  0  0  0  0  0  0  0  0  0
    1.8473    0.2171    0.1054 C   0  0  0  0  0  0  0  0  0  0  0  0
    2.3701   -0.7383    0.7413 O   0  0  0  0  0  0  0  0  0  0  0  0
    2.6530    1.2331   -0.3978 O   0  0  0  0  0  0  0  0  0  0  0  0
   -5.0747    1.5419   -4.1611 H   0  0  0  0  0  0  0  0  0  0  0  0
   -3.3119    1.8491   -3.9368 H   0  0  0  0  0  0  0  0  0  0  0  0
   -3.8792    0.1727   -4.2824 H   0  0  0  0  0  0  0  0  0  0  0  0
   -6.1365   -0.6115   -3.6232 H   0  0  0  0  0  0  0  0  0  0  0  0
   -7.7223   -2.1332   -2.5353 H   0  0  0  0  0  0  0  0  0  0  0  0
   -7.7028   -2.4159   -0.0768 H   0  0  0  0  0  0  0  0  0  0  0  0
   -6.0892   -1.1697    1.3042 H   0  0  0  0  0  0  0  0  0  0  0  0
   -4.1118    1.6490    0.1557 H   0  0  0  0  0  0  0  0  0  0  0  0
   -4.4862    0.5985    1.5490 H   0  0  0  0  0  0  0  0  0  0  0  0
   -1.8019    0.8264   -1.2393 H   0  0  0  0  0  0  0  0  0  0  0  0
   -1.4542    1.5389    0.3880 H   0  0  0  0  0  0  0  0  0  0  0  0
   -0.1386   -0.7709   -0.9803 H   0  0  0  0  0  0  0  0  0  0  0  0
    0.2724    0.6760    1.7112 H   0  0  0  0  0  0  0  0  0  0  0  0
    1.2890    0.7097    0.2166 H   0  0  0  0  0  0  0  0  0  0  0  0
    2.8284    1.3108    1.6887 H   0  0  0  0  0  0  0  0  0  0  0  0
    2.7006    1.0457    3.4443 H   0  0  0  0  0  0  0  0  0  0  0  0
    4.9735    0.0287    3.4847 H   0  0  0  0  0  0  0  0  0  0  0  0
    4.6996    2.3688    3.7367 H   0  0  0  0  0  0  0  0  0  0  0  0
    6.1654    1.9957    3.0372 H   0  0  0  0  0  0  0  0  0  0  0  0
    5.1547   -1.0247    1.2927 H   0  0  0  0  0  0  0  0  0  0  0  0
    6.4797    0.1293    1.4909 H   0  0  0  0  0  0  0  0  0  0  0  0
    3.5166   -0.7532   -0.4701 H   0  0  0  0  0  0  0  0  0  0  0  0
    5.6718    3.5040   -1.8212 H   0  0  0  0  0  0  0  0  0  0  0  0
    1.6929   -3.1667    1.7114 H   0  0  0  0  0  0  0  0  0  0  0  0
    1.3806   -2.6295    0.0335 H   0  0  0  0  0  0  0  0  0  0  0  0
   -0.6703   -3.6460    0.8718 H   0  0  0  0  0  0  0  0  0  0  0  0
   -0.5897   -2.6830    2.4016 H   0  0  0  0  0  0  0  0  0  0  0  0
   -3.4571    0.5068   -0.7414 H   0  0  0  0  0  0  0  0  0  0  0  0
   -0.0494   -1.5130    0.8955 H   0  0  0  0  0  0  0  0  0  0  0  0
    0.0036    1.1219   -0.6682 H   0  0  0  0  0  0  0  0  0  0  0  0
    3.6566    1.2169   -0.2606 H   0  0  0  0  0  0  0  0  0  0  0  0
  1  2  1  0
  2  3  1  0
  3  4  2  0
  4  5  1  0
  5  6  2  0
  6  7  1  0
  7  8  2  0
  8  9  1  0
  9 10  1  0
 10 11  1  0
 11 12  1  0
 12 13  1  0
 13 14  1  0
 14 15  1  0
 15 16  2  0
 15 17  1  0
 17 18  1  0
 18 19  1  0
 18 20  1  0
 20 21  1  0
 21 22  2  0
 22 23  1  0
 23 24  1  0
 23 25  2  0
 25 26  1  0
 25 27  1  0
 27 28  2  0
 28 29  1  0
 14 30  1  0
 30 31  1  0
 31 32  1  0
 32 33  1  0
 33 34  2  0
 35 36  2  0
 36 37  1  0
 36 38  1  0
 38 39  2  0
 39 40  1  0
 40 41  2  0
 40 42  1  0
  8  3  1  0
 33 10  1  0
 32 12  1  0
 28 21  1  0
  1 43  1  0
  1 44  1  0
  1 45  1  0
  4 46  1  0
  5 47  1  0
  6 48  1  0
  7 49  1  0
  9 50  1  0
  9 51  1  0
 11 52  1  0
 11 53  1  0
 12 54  1  0
 13 55  1  0
 13 56  1  0
 17 57  1  0
 17 58  1  0
 18 59  1  1
 19 60  1  0
 19 61  1  0
 20 62  1  0
 20 63  1  0
 22 64  1  0
 27 65  1  0
 30 66  1  0
 30 67  1  0
 31 68  1  0
 31 69  1  0
 37 70  1  0
 38 71  1  0
 39 72  1  0
 42 73  1  0
M  END
$$$$
