
     RDKit          3D

 48 49  0  0  0  0  0  0  0  0999 V2000
    2.9150    2.2910   -1.0396 N   0  0  0  0  0  0  0  0  0  0  0  0
    2.3110    1.3017   -0.1411 C   0  0  1  0  0  0  0  0  0  0  0  0
    1.2880    0.4146   -0.8979 C   0  0  0  0  0  0  0  0  0  0  0  0
    0.0057    1.1215   -1.2657 C   0  0  0  0  0  0  0  0  0  0  0  0
   -0.2421    2.2702   -0.8068 O   0  0  0  0  0  0  0  0  0  0  0  0
   -0.9800    0.4543   -2.0746 N   0  0  0  0  0  0  0  0  0  0  0  0
   -0.6655   -0.6432   -2.9759 C   0  0  0  0  0  0  0  0  0  0  0  0
   -1.9848   -1.0328   -3.6297 C   0  0  0  0  0  0  0  0  0  0  0  0
   -2.9321    0.1354   -3.3736 C   0  0  0  0  0  0  0  0  0  0  0  0
   -2.3840    0.8455   -2.1328 C   0  0  1  0  0  0  0  0  0  0  0  0
   -3.1145    0.3863   -0.8573 C   0  0  0  0  0  0  0  0  0  0  0  0
   -2.6892    1.2008    0.2851 N   0  0  0  0  0  0  0  0  0  0  0  0
   -2.9155    0.3423    1.7805 S   0  0  0  0  0  0  0  0  0  0  0  0
   -4.1157   -0.5607    1.6994 O   0  0  0  0  0  0  0  0  0  0  0  0
   -3.1223    1.3337    2.8910 O   0  0  0  0  0  0  0  0  0  0  0  0
   -1.4566   -0.6185    2.1319 C   0  0  0  0  0  0  0  0  0  0  0  0
   -1.5944   -1.2401    3.3583 F   0  0  0  0  0  0  0  0  0  0  0  0
   -1.2747   -1.5755    1.1522 F   0  0  0  0  0  0  0  0  0  0  0  0
   -0.3577    0.2172    2.1637 F   0  0  0  0  0  0  0  0  0  0  0  0
    3.4329    0.4517    0.4921 C   0  0  0  0  0  0  0  0  0  0  0  0
    2.9409   -0.3555    1.6708 C   0  0  0  0  0  0  0  0  0  0  0  0
    2.6344   -1.7189    1.5162 C   0  0  0  0  0  0  0  0  0  0  0  0
    2.1371   -2.4585    2.5935 C   0  0  0  0  0  0  0  0  0  0  0  0
    1.8348   -3.7702    2.4300 F   0  0  0  0  0  0  0  0  0  0  0  0
    1.9469   -1.8454    3.8353 C   0  0  0  0  0  0  0  0  0  0  0  0
    1.4610   -2.5608    4.8797 F   0  0  0  0  0  0  0  0  0  0  0  0
    2.2546   -0.4924    4.0007 C   0  0  0  0  0  0  0  0  0  0  0  0
    2.7480    0.2537    2.9253 C   0  0  0  0  0  0  0  0  0  0  0  0
    3.0295    1.5692    3.1049 F   0  0  0  0  0  0  0  0  0  0  0  0
    3.3260    1.8049   -1.8701 H   0  0  0  0  0  0  0  0  0  0  0  0
    2.1761    2.9418   -1.3894 H   0  0  0  0  0  0  0  0  0  0  0  0
    1.7915    1.8462    0.6792 H   0  0  0  0  0  0  0  0  0  0  0  0
    1.7641    0.0061   -1.8147 H   0  0  0  0  0  0  0  0  0  0  0  0
    0.9979   -0.4477   -0.2645 H   0  0  0  0  0  0  0  0  0  0  0  0
   -0.2426   -1.5022   -2.4112 H   0  0  0  0  0  0  0  0  0  0  0  0
    0.0596   -0.2982   -3.7447 H   0  0  0  0  0  0  0  0  0  0  0  0
   -2.3872   -1.9483   -3.1426 H   0  0  0  0  0  0  0  0  0  0  0  0
   -1.8598   -1.2219   -4.7180 H   0  0  0  0  0  0  0  0  0  0  0  0
   -3.9815   -0.2127   -3.2549 H   0  0  0  0  0  0  0  0  0  0  0  0
   -2.8893    0.8314   -4.2405 H   0  0  0  0  0  0  0  0  0  0  0  0
   -2.4811    1.9469   -2.2606 H   0  0  0  0  0  0  0  0  0  0  0  0
   -4.2155    0.4853   -0.9922 H   0  0  0  0  0  0  0  0  0  0  0  0
   -2.8852   -0.6900   -0.6915 H   0  0  0  0  0  0  0  0  0  0  0  0
   -3.2873    2.0585    0.3187 H   0  0  0  0  0  0  0  0  0  0  0  0
    3.8807   -0.2152   -0.2778 H   0  0  0  0  0  0  0  0  0  0  0  0
    4.2496    1.1222    0.8391 H   0  0  0  0  0  0  0  0  0  0  0  0
    2.7688   -2.2049    0.5577 H   0  0  0  0  0  0  0  0  0  0  0  0
    2.1045   -0.0188    4.9624 H   0  0  0  0  0  0  0  0  0  0  0  0
  1  2  1  0
  2  3  1  0
  3  4  1  0
  4  5  2  0
  4  6  1  0
  6  7  1  0
  7  8  1  0
  8  9  1  0
  9 10  1  0
 10 11  1  0
 11 12  1  0
 12 13  1  0
 13 14  2  0
 13 15  2  0
 13 16  1  0
 16 17  1  0
 16 18  1  0
 16 19  1  0
  2 20  1  0
 20 21  1  0
 21 22  2  0
 22 23  1  0
 23 24  1  0
 23 25  2  0
 25 26  1  0
 25 27  1  0
 27 28  2  0
 28 29  1  0
 10  6  1  0
 28 21  1  0
  1 30  1  0
  1 31  1  0
  2 32  1  1
  3 33  1  0
  3 34  1  0
  7 35  1  0
  7 36  1  0
  8 37  1  0
  8 38  1  0
  9 39  1  0
  9 40  1  0
 10 41  1  6
 11 42  1  0
 11 43  1  0
 12 44  1  0
 20 45  1  0
 20 46  1  0
 22 47  1  0
 27 48  1  0
M  END
$$$$
