
     RDKit          3D

 43 44  0  0  0  0  0  0  0  0999 V2000
    7.6933    0.9018    0.2028 C   0  0  0  0  0  0  0  0  0  0  0  0
    6.3796    0.2075    0.5482 C   0  0  0  0  0  0  0  0  0  0  0  0
    5.4752    1.1182    1.3842 C   0  0  0  0  0  0  0  0  0  0  0  0
    4.2563    0.4513    1.7127 O   0  0  0  0  0  0  0  0  0  0  0  0
    3.1807    0.2352    0.8352 C   0  0  0  0  0  0  0  0  0  0  0  0
    3.1440    0.7587   -0.4715 C   0  0  0  0  0  0  0  0  0  0  0  0
    2.0447    0.5128   -1.2996 C   0  0  0  0  0  0  0  0  0  0  0  0
    0.9570   -0.2440   -0.8355 C   0  0  0  0  0  0  0  0  0  0  0  0
   -0.1921   -0.5150   -1.7323 C   0  0  0  0  0  0  0  0  0  0  0  0
    0.0242   -0.6997   -2.9600 O   0  0  0  0  0  0  0  0  0  0  0  0
   -1.5875   -0.5981   -1.2533 C   0  0  0  0  0  0  0  0  0  0  0  0
   -2.0255    0.0602   -0.1717 C   0  0  0  0  0  0  0  0  0  0  0  0
   -3.4200   -0.0358    0.3143 C   0  0  0  0  0  0  0  0  0  0  0  0
   -3.6293   -0.1449    1.6974 C   0  0  0  0  0  0  0  0  0  0  0  0
   -4.9217   -0.2449    2.2181 C   0  0  0  0  0  0  0  0  0  0  0  0
   -5.1438   -0.4020    3.9539 Cl  0  0  0  0  0  0  0  0  0  0  0  0
   -6.0257   -0.2225    1.3595 C   0  0  0  0  0  0  0  0  0  0  0  0
   -7.3143   -0.3295    1.8811 O   0  0  0  0  0  0  0  0  0  0  0  0
   -5.8311   -0.0863   -0.0208 C   0  0  0  0  0  0  0  0  0  0  0  0
   -4.5321    0.0246   -0.5567 C   0  0  0  0  0  0  0  0  0  0  0  0
   -4.3203    0.2230   -1.9315 O   0  0  0  0  0  0  0  0  0  0  0  0
   -5.3529    0.3029   -2.9086 C   0  0  0  0  0  0  0  0  0  0  0  0
    1.0030   -0.7771    0.4639 C   0  0  0  0  0  0  0  0  0  0  0  0
    2.1023   -0.5311    1.2908 C   0  0  0  0  0  0  0  0  0  0  0  0
    8.2420    1.1737    1.1297 H   0  0  0  0  0  0  0  0  0  0  0  0
    7.4989    1.8198   -0.3918 H   0  0  0  0  0  0  0  0  0  0  0  0
    8.3287    0.2174   -0.3980 H   0  0  0  0  0  0  0  0  0  0  0  0
    6.5976   -0.7192    1.1218 H   0  0  0  0  0  0  0  0  0  0  0  0
    5.8677   -0.0814   -0.3936 H   0  0  0  0  0  0  0  0  0  0  0  0
    5.9970    1.3654    2.3332 H   0  0  0  0  0  0  0  0  0  0  0  0
    5.2683    2.0766    0.8616 H   0  0  0  0  0  0  0  0  0  0  0  0
    3.9549    1.3574   -0.8606 H   0  0  0  0  0  0  0  0  0  0  0  0
    2.0378    0.9256   -2.3011 H   0  0  0  0  0  0  0  0  0  0  0  0
   -2.2774   -1.1926   -1.8386 H   0  0  0  0  0  0  0  0  0  0  0  0
   -1.3304    0.6409    0.4221 H   0  0  0  0  0  0  0  0  0  0  0  0
   -2.7825   -0.1698    2.3735 H   0  0  0  0  0  0  0  0  0  0  0  0
   -8.1323   -0.3144    1.2832 H   0  0  0  0  0  0  0  0  0  0  0  0
   -6.6985   -0.0546   -0.6657 H   0  0  0  0  0  0  0  0  0  0  0  0
   -5.9347   -0.6428   -2.9275 H   0  0  0  0  0  0  0  0  0  0  0  0
   -4.8949    0.4574   -3.9070 H   0  0  0  0  0  0  0  0  0  0  0  0
   -6.0219    1.1613   -2.6882 H   0  0  0  0  0  0  0  0  0  0  0  0
    0.1957   -1.3954    0.8358 H   0  0  0  0  0  0  0  0  0  0  0  0
    2.1202   -0.9458    2.2908 H   0  0  0  0  0  0  0  0  0  0  0  0
  1  2  1  0
  2  3  1  0
  3  4  1  0
  4  5  1  0
  5  6  2  0
  6  7  1  0
  7  8  2  0
  8  9  1  0
  9 10  2  0
  9 11  1  0
 11 12  2  0
 12 13  1  0
 13 14  2  0
 14 15  1  0
 15 16  1  0
 15 17  2  0
 17 18  1  0
 17 19  1  0
 19 20  2  0
 20 21  1  0
 21 22  1  0
  8 23  1  0
 23 24  2  0
 24  5  1  0
 20 13  1  0
  1 25  1  0
  1 26  1  0
  1 27  1  0
  2 28  1  0
  2 29  1  0
  3 30  1  0
  3 31  1  0
  6 32  1  0
  7 33  1  0
 11 34  1  0
 12 35  1  0
 14 36  1  0
 18 37  1  0
 19 38  1  0
 22 39  1  0
 22 40  1  0
 22 41  1  0
 23 42  1  0
 24 43  1  0
M  END
$$$$
