
     RDKit          3D

 36 36  0  0  0  0  0  0  0  0999 V2000
   -3.9745    1.4044    0.0813 C   0  0  0  0  0  0  0  0  0  0  0  0
   -3.6348   -0.0210    0.5199 C   0  0  0  0  0  0  0  0  0  0  0  0
   -2.1231   -0.3437    0.4292 C   0  0  0  0  0  0  0  0  0  0  0  0
   -1.8416   -1.6857    1.1308 C   0  0  0  0  0  0  0  0  0  0  0  0
   -1.5928   -0.3128   -1.0347 C   0  0  0  0  0  0  0  0  0  0  0  0
   -2.3228   -1.2540   -1.8931 N   0  0  0  0  0  0  0  0  0  0  0  0
   -0.0969   -0.5388   -1.0898 C   0  0  0  0  0  0  0  0  0  0  0  0
    0.3661   -1.6574   -1.4461 O   0  0  0  0  0  0  0  0  0  0  0  0
    0.7942    0.5110   -0.6869 N   0  0  0  0  0  0  0  0  0  0  0  0
    2.2430    0.3055   -0.5933 C   0  0  0  0  0  0  0  0  0  0  0  0
    2.9856    1.6000   -0.2905 C   0  0  0  0  0  0  0  0  0  0  0  0
    4.2754    1.1630    0.3843 C   0  0  0  0  0  0  0  0  0  0  0  0
    3.9777   -0.1782    1.0519 C   0  0  0  0  0  0  0  0  0  0  0  0
    2.6039   -0.6269    0.5585 C   0  0  0  0  0  0  0  0  0  0  0  0
   -3.8644    1.5160   -1.0170 H   0  0  0  0  0  0  0  0  0  0  0  0
   -5.0309    1.6277    0.3409 H   0  0  0  0  0  0  0  0  0  0  0  0
   -3.3218    2.1390    0.5990 H   0  0  0  0  0  0  0  0  0  0  0  0
   -3.9658   -0.1313    1.5761 H   0  0  0  0  0  0  0  0  0  0  0  0
   -4.2234   -0.7421   -0.0879 H   0  0  0  0  0  0  0  0  0  0  0  0
   -1.5776    0.4377    1.0052 H   0  0  0  0  0  0  0  0  0  0  0  0
   -2.1452   -1.6264    2.1978 H   0  0  0  0  0  0  0  0  0  0  0  0
   -0.7583   -1.9266    1.1099 H   0  0  0  0  0  0  0  0  0  0  0  0
   -2.4084   -2.5131    0.6551 H   0  0  0  0  0  0  0  0  0  0  0  0
   -1.7623    0.7082   -1.4383 H   0  0  0  0  0  0  0  0  0  0  0  0
   -2.0188   -1.1071   -2.8833 H   0  0  0  0  0  0  0  0  0  0  0  0
   -2.0815   -2.2386   -1.6380 H   0  0  0  0  0  0  0  0  0  0  0  0
    0.3873    1.4494   -0.4704 H   0  0  0  0  0  0  0  0  0  0  0  0
    2.6271   -0.1131   -1.5513 H   0  0  0  0  0  0  0  0  0  0  0  0
    2.4035    2.2301    0.4188 H   0  0  0  0  0  0  0  0  0  0  0  0
    3.1869    2.1786   -1.2180 H   0  0  0  0  0  0  0  0  0  0  0  0
    5.0701    1.0320   -0.3832 H   0  0  0  0  0  0  0  0  0  0  0  0
    4.6122    1.9186    1.1271 H   0  0  0  0  0  0  0  0  0  0  0  0
    3.9711   -0.0683    2.1585 H   0  0  0  0  0  0  0  0  0  0  0  0
    4.7527   -0.9253    0.7724 H   0  0  0  0  0  0  0  0  0  0  0  0
    2.6252   -1.6861    0.2219 H   0  0  0  0  0  0  0  0  0  0  0  0
    1.8632   -0.5248    1.3833 H   0  0  0  0  0  0  0  0  0  0  0  0
  1  2  1  0
  2  3  1  0
  3  4  1  0
  3  5  1  0
  5  6  1  0
  5  7  1  0
  7  8  2  0
  7  9  1  0
  9 10  1  0
 10 11  1  0
 11 12  1  0
 12 13  1  0
 13 14  1  0
 14 10  1  0
  1 15  1  0
  1 16  1  0
  1 17  1  0
  2 18  1  0
  2 19  1  0
  3 20  1  0
  4 21  1  0
  4 22  1  0
  4 23  1  0
  5 24  1  0
  6 25  1  0
  6 26  1  0
  9 27  1  0
 10 28  1  0
 11 29  1  0
 11 30  1  0
 12 31  1  0
 12 32  1  0
 13 33  1  0
 13 34  1  0
 14 35  1  0
 14 36  1  0
M  END
$$$$
