
     RDKit          3D

 37 38  0  0  0  0  0  0  0  0999 V2000
    0.5487    1.9160    1.5983 N   0  0  0  0  0  0  0  0  0  0  0  0
    0.0117    0.5530    1.5090 C   0  0  2  0  0  0  0  0  0  0  0  0
    1.1509   -0.4399    1.4000 C   0  0  0  0  0  0  0  0  0  0  0  0
    1.2630   -1.3184    2.2982 O   0  0  0  0  0  0  0  0  0  0  0  0
    2.0590   -0.4675    0.2813 N   0  0  0  0  0  0  0  0  0  0  0  0
    2.7820   -1.6713   -0.0915 C   0  0  0  0  0  0  0  0  0  0  0  0
    3.5672   -1.3090   -1.3431 C   0  0  0  0  0  0  0  0  0  0  0  0
    3.6296    0.2145   -1.3637 C   0  0  0  0  0  0  0  0  0  0  0  0
    2.4712    0.6905   -0.4961 C   0  0  0  0  0  0  0  0  0  0  0  0
   -1.0302    0.3888    0.3592 C   0  0  0  0  0  0  0  0  0  0  0  0
   -1.5720   -1.0607    0.2990 C   0  0  0  0  0  0  0  0  0  0  0  0
   -2.6215   -1.2236   -0.8070 C   0  0  0  0  0  0  0  0  0  0  0  0
   -3.7762   -0.2362   -0.6187 C   0  0  0  0  0  0  0  0  0  0  0  0
   -3.2568    1.2032   -0.5724 C   0  0  0  0  0  0  0  0  0  0  0  0
   -2.2090    1.3762    0.5342 C   0  0  0  0  0  0  0  0  0  0  0  0
    0.5922    2.3550    0.6507 H   0  0  0  0  0  0  0  0  0  0  0  0
   -0.1018    2.5002    2.1726 H   0  0  0  0  0  0  0  0  0  0  0  0
   -0.5188    0.3352    2.4659 H   0  0  0  0  0  0  0  0  0  0  0  0
    2.0714   -2.5003   -0.3006 H   0  0  0  0  0  0  0  0  0  0  0  0
    3.4734   -1.9623    0.7291 H   0  0  0  0  0  0  0  0  0  0  0  0
    3.0209   -1.6691   -2.2428 H   0  0  0  0  0  0  0  0  0  0  0  0
    4.5845   -1.7570   -1.3286 H   0  0  0  0  0  0  0  0  0  0  0  0
    4.5926    0.5509   -0.9199 H   0  0  0  0  0  0  0  0  0  0  0  0
    3.5493    0.6080   -2.4004 H   0  0  0  0  0  0  0  0  0  0  0  0
    2.8131    1.5078    0.1745 H   0  0  0  0  0  0  0  0  0  0  0  0
    1.6372    1.0389   -1.1387 H   0  0  0  0  0  0  0  0  0  0  0  0
   -0.5379    0.6106   -0.6114 H   0  0  0  0  0  0  0  0  0  0  0  0
   -0.7434   -1.7707    0.0894 H   0  0  0  0  0  0  0  0  0  0  0  0
   -2.0218   -1.3393    1.2777 H   0  0  0  0  0  0  0  0  0  0  0  0
   -3.0198   -2.2609   -0.7848 H   0  0  0  0  0  0  0  0  0  0  0  0
   -2.1469   -1.0604   -1.7998 H   0  0  0  0  0  0  0  0  0  0  0  0
   -4.4910   -0.3418   -1.4630 H   0  0  0  0  0  0  0  0  0  0  0  0
   -4.3198   -0.4696    0.3232 H   0  0  0  0  0  0  0  0  0  0  0  0
   -2.8105    1.4721   -1.5552 H   0  0  0  0  0  0  0  0  0  0  0  0
   -4.1074    1.8929   -0.3831 H   0  0  0  0  0  0  0  0  0  0  0  0
   -2.6912    1.2208    1.5248 H   0  0  0  0  0  0  0  0  0  0  0  0
   -1.8420    2.4235    0.4935 H   0  0  0  0  0  0  0  0  0  0  0  0
  1  2  1  0
  2  3  1  0
  3  4  2  0
  3  5  1  0
  5  6  1  0
  6  7  1  0
  7  8  1  0
  8  9  1  0
  2 10  1  0
 10 11  1  0
 11 12  1  0
 12 13  1  0
 13 14  1  0
 14 15  1  0
  9  5  1  0
 15 10  1  0
  1 16  1  0
  1 17  1  0
  2 18  1  1
  6 19  1  0
  6 20  1  0
  7 21  1  0
  7 22  1  0
  8 23  1  0
  8 24  1  0
  9 25  1  0
  9 26  1  0
 10 27  1  0
 11 28  1  0
 11 29  1  0
 12 30  1  0
 12 31  1  0
 13 32  1  0
 13 33  1  0
 14 34  1  0
 14 35  1  0
 15 36  1  0
 15 37  1  0
M  END
$$$$
