
     RDKit          3D

 57 59  0  0  0  0  0  0  0  0999 V2000
    6.2608   -2.0775    2.2634 C   0  0  0  0  0  0  0  0  0  0  0  0
    4.8978   -1.9514    1.8712 O   0  0  0  0  0  0  0  0  0  0  0  0
    4.3766   -0.8692    1.1455 C   0  0  0  0  0  0  0  0  0  0  0  0
    5.1728    0.2137    0.7304 C   0  0  0  0  0  0  0  0  0  0  0  0
    4.6054    1.2772    0.0049 C   0  0  0  0  0  0  0  0  0  0  0  0
    5.3594    2.3780   -0.4297 O   0  0  0  0  0  0  0  0  0  0  0  0
    6.7537    2.5443   -0.1933 C   0  0  0  0  0  0  0  0  0  0  0  0
    3.2408    1.2488   -0.3010 C   0  0  0  0  0  0  0  0  0  0  0  0
    2.4302    0.1740    0.1054 C   0  0  0  0  0  0  0  0  0  0  0  0
    0.9830    0.1538   -0.2224 C   0  0  0  0  0  0  0  0  0  0  0  0
    0.2062   -0.8908    0.1638 N   0  0  0  0  0  0  0  0  0  0  0  0
   -1.1224   -0.9371   -0.1129 C   0  0  0  0  0  0  0  0  0  0  0  0
   -1.8931   -2.1018    0.3636 C   0  0  0  0  0  0  0  0  0  0  0  0
   -2.3863   -3.0332   -0.5635 C   0  0  0  0  0  0  0  0  0  0  0  0
   -3.1261   -4.1361   -0.1301 C   0  0  0  0  0  0  0  0  0  0  0  0
   -3.3739   -4.3218    1.2328 C   0  0  0  0  0  0  0  0  0  0  0  0
   -4.3065   -5.7051    1.7744 Cl  0  0  0  0  0  0  0  0  0  0  0  0
   -2.8781   -3.4041    2.1644 C   0  0  0  0  0  0  0  0  0  0  0  0
   -2.1358   -2.2963    1.7382 C   0  0  0  0  0  0  0  0  0  0  0  0
   -1.5582   -1.1500    2.9431 Cl  0  0  0  0  0  0  0  0  0  0  0  0
   -1.7319    0.1310   -0.8099 C   0  0  0  0  0  0  0  0  0  0  0  0
   -3.2349    0.1662   -1.0244 C   0  0  0  0  0  0  0  0  0  0  0  0
   -3.9448    0.1333    0.2711 N   0  0  0  0  0  0  0  0  0  0  0  0
   -5.3527   -0.2416    0.0702 C   0  0  0  0  0  0  0  0  0  0  0  0
   -3.8681    1.4412    0.9438 C   0  0  0  0  0  0  0  0  0  0  0  0
   -0.9021    1.1962   -1.2226 C   0  0  0  0  0  0  0  0  0  0  0  0
   -1.4235    2.3095   -1.9613 N   0  0  0  0  0  0  0  0  0  0  0  0
   -1.3314    3.6490   -1.3840 C   0  0  0  0  0  0  0  0  0  0  0  0
   -1.7728    2.1474   -3.3724 C   0  0  0  0  0  0  0  0  0  0  0  0
    0.4202    1.1796   -0.9117 N   0  0  0  0  0  0  0  0  0  0  0  0
    3.0140   -0.8803    0.8302 C   0  0  0  0  0  0  0  0  0  0  0  0
    6.9157   -2.1010    1.3668 H   0  0  0  0  0  0  0  0  0  0  0  0
    6.5476   -1.2331    2.9251 H   0  0  0  0  0  0  0  0  0  0  0  0
    6.3906   -3.0266    2.8226 H   0  0  0  0  0  0  0  0  0  0  0  0
    6.2255    0.2289    0.9701 H   0  0  0  0  0  0  0  0  0  0  0  0
    7.3222    1.7125   -0.6605 H   0  0  0  0  0  0  0  0  0  0  0  0
    7.0866    3.5003   -0.6466 H   0  0  0  0  0  0  0  0  0  0  0  0
    6.9544    2.5798    0.8984 H   0  0  0  0  0  0  0  0  0  0  0  0
    2.8186    2.0749   -0.8598 H   0  0  0  0  0  0  0  0  0  0  0  0
   -2.1976   -2.9039   -1.6223 H   0  0  0  0  0  0  0  0  0  0  0  0
   -3.5056   -4.8457   -0.8542 H   0  0  0  0  0  0  0  0  0  0  0  0
   -3.0736   -3.5495    3.2194 H   0  0  0  0  0  0  0  0  0  0  0  0
   -3.5027   -0.7206   -1.6390 H   0  0  0  0  0  0  0  0  0  0  0  0
   -3.5598    1.0491   -1.6153 H   0  0  0  0  0  0  0  0  0  0  0  0
   -5.8864   -0.2691    1.0447 H   0  0  0  0  0  0  0  0  0  0  0  0
   -5.8679    0.4750   -0.6079 H   0  0  0  0  0  0  0  0  0  0  0  0
   -5.4163   -1.2634   -0.3625 H   0  0  0  0  0  0  0  0  0  0  0  0
   -4.3807    1.3952    1.9287 H   0  0  0  0  0  0  0  0  0  0  0  0
   -4.3361    2.2420    0.3287 H   0  0  0  0  0  0  0  0  0  0  0  0
   -2.8092    1.7101    1.1439 H   0  0  0  0  0  0  0  0  0  0  0  0
   -1.6911    4.4171   -2.1018 H   0  0  0  0  0  0  0  0  0  0  0  0
   -1.9567    3.7022   -0.4683 H   0  0  0  0  0  0  0  0  0  0  0  0
   -0.2770    3.8784   -1.1211 H   0  0  0  0  0  0  0  0  0  0  0  0
   -0.9625    2.5642   -4.0067 H   0  0  0  0  0  0  0  0  0  0  0  0
   -2.7213    2.6823   -3.5902 H   0  0  0  0  0  0  0  0  0  0  0  0
   -1.9091    1.0743   -3.6271 H   0  0  0  0  0  0  0  0  0  0  0  0
    2.4140   -1.7204    1.1576 H   0  0  0  0  0  0  0  0  0  0  0  0
  1  2  1  0
  2  3  1  0
  3  4  2  0
  4  5  1  0
  5  6  1  0
  6  7  1  0
  5  8  2  0
  8  9  1  0
  9 10  1  0
 10 11  2  0
 11 12  1  0
 12 13  1  0
 13 14  2  0
 14 15  1  0
 15 16  2  0
 16 17  1  0
 16 18  1  0
 18 19  2  0
 19 20  1  0
 12 21  2  0
 21 22  1  0
 22 23  1  0
 23 24  1  0
 23 25  1  0
 21 26  1  0
 26 27  1  0
 27 28  1  0
 27 29  1  0
 26 30  2  0
  9 31  2  0
 31  3  1  0
 30 10  1  0
 19 13  1  0
  1 32  1  0
  1 33  1  0
  1 34  1  0
  4 35  1  0
  7 36  1  0
  7 37  1  0
  7 38  1  0
  8 39  1  0
 14 40  1  0
 15 41  1  0
 18 42  1  0
 22 43  1  0
 22 44  1  0
 24 45  1  0
 24 46  1  0
 24 47  1  0
 25 48  1  0
 25 49  1  0
 25 50  1  0
 28 51  1  0
 28 52  1  0
 28 53  1  0
 29 54  1  0
 29 55  1  0
 29 56  1  0
 31 57  1  0
M  END
$$$$
