
     RDKit          3D

 60 63  0  0  0  0  0  0  0  0999 V2000
   -9.4293    1.6212   -1.8583 N   0  0  0  0  0  0  0  0  0  0  0  0
   -8.4349    1.0435   -1.9875 C   0  0  0  0  0  0  0  0  0  0  0  0
   -7.1687    0.3086   -2.1517 C   0  0  2  0  0  0  0  0  0  0  0  0
   -7.4280   -1.1740   -2.4310 C   0  0  0  0  0  0  0  0  0  0  0  0
   -6.4401   -1.9404   -1.5573 C   0  0  0  0  0  0  0  0  0  0  0  0
   -6.0305   -0.9812   -0.4489 C   0  0  0  0  0  0  0  0  0  0  0  0
   -6.3819    0.3482   -0.9253 N   0  0  0  0  0  0  0  0  0  0  0  0
   -5.9113    1.5728   -0.3237 C   0  0  0  0  0  0  0  0  0  0  0  0
   -6.1883    2.6793   -0.8617 O   0  0  0  0  0  0  0  0  0  0  0  0
   -5.0708    1.5696    0.9256 C   0  0  0  0  0  0  0  0  0  0  0  0
   -3.5593    1.5207    0.6038 C   0  0  1  0  0  0  0  0  0  0  0  0
   -3.1099    2.7519   -0.0557 N   0  0  0  0  0  0  0  0  0  0  0  0
   -2.7476    1.2952    1.8926 C   0  0  0  0  0  0  0  0  0  0  0  0
   -1.2806    1.1176    1.5945 C   0  0  0  0  0  0  0  0  0  0  0  0
   -0.4011    2.2070    1.6764 C   0  0  0  0  0  0  0  0  0  0  0  0
    0.9531    2.0463    1.3702 C   0  0  0  0  0  0  0  0  0  0  0  0
    1.4520    0.7943    0.9695 C   0  0  0  0  0  0  0  0  0  0  0  0
    2.8903    0.6406    0.6472 C   0  0  0  0  0  0  0  0  0  0  0  0
    3.5522   -0.5075    0.2522 C   0  0  0  0  0  0  0  0  0  0  0  0
    4.8376   -0.1581    0.0753 N   0  0  0  0  0  0  0  0  0  0  0  0
    5.9409   -1.0505   -0.2863 C   0  0  0  0  0  0  0  0  0  0  0  0
    6.7926   -1.3821    0.9625 C   0  0  0  0  0  0  0  0  0  0  0  0
    8.2564   -1.7378    0.6290 C   0  0  0  0  0  0  0  0  0  0  0  0
    8.3894   -2.3577   -0.7660 C   0  0  0  0  0  0  0  0  0  0  0  0
    7.9085   -1.3917   -1.8683 C   0  0  0  0  0  0  0  0  0  0  0  0
    6.7991   -0.4272   -1.4001 C   0  0  0  0  0  0  0  0  0  0  0  0
    4.9661    1.1282    0.3612 N   0  0  0  0  0  0  0  0  0  0  0  0
    3.7947    1.6416    0.7068 N   0  0  0  0  0  0  0  0  0  0  0  0
    0.5641   -0.2933    0.8784 C   0  0  0  0  0  0  0  0  0  0  0  0
   -0.7900   -0.1309    1.1849 C   0  0  0  0  0  0  0  0  0  0  0  0
   -6.5824    0.7589   -2.9821 H   0  0  0  0  0  0  0  0  0  0  0  0
   -8.4625   -1.4721   -2.1446 H   0  0  0  0  0  0  0  0  0  0  0  0
   -7.2754   -1.4109   -3.5066 H   0  0  0  0  0  0  0  0  0  0  0  0
   -5.5473   -2.2137   -2.1621 H   0  0  0  0  0  0  0  0  0  0  0  0
   -6.8961   -2.8660   -1.1433 H   0  0  0  0  0  0  0  0  0  0  0  0
   -6.5919   -1.2016    0.4846 H   0  0  0  0  0  0  0  0  0  0  0  0
   -4.9393   -1.0638   -0.2628 H   0  0  0  0  0  0  0  0  0  0  0  0
   -5.3548    0.6999    1.5550 H   0  0  0  0  0  0  0  0  0  0  0  0
   -5.3000    2.4783    1.5245 H   0  0  0  0  0  0  0  0  0  0  0  0
   -3.3654    0.6625   -0.0774 H   0  0  0  0  0  0  0  0  0  0  0  0
   -3.5225    2.7986   -1.0150 H   0  0  0  0  0  0  0  0  0  0  0  0
   -3.4469    3.5841    0.4815 H   0  0  0  0  0  0  0  0  0  0  0  0
   -3.1194    0.3861    2.4149 H   0  0  0  0  0  0  0  0  0  0  0  0
   -2.8978    2.1509    2.5876 H   0  0  0  0  0  0  0  0  0  0  0  0
   -0.7643    3.1828    1.9748 H   0  0  0  0  0  0  0  0  0  0  0  0
    1.6093    2.9044    1.4449 H   0  0  0  0  0  0  0  0  0  0  0  0
    3.1520   -1.5029    0.1141 H   0  0  0  0  0  0  0  0  0  0  0  0
    5.5175   -2.0013   -0.6848 H   0  0  0  0  0  0  0  0  0  0  0  0
    6.3195   -2.2358    1.4954 H   0  0  0  0  0  0  0  0  0  0  0  0
    6.7973   -0.5205    1.6657 H   0  0  0  0  0  0  0  0  0  0  0  0
    8.6491   -2.4461    1.3902 H   0  0  0  0  0  0  0  0  0  0  0  0
    8.8807   -0.8180    0.6734 H   0  0  0  0  0  0  0  0  0  0  0  0
    7.7882   -3.2929   -0.8030 H   0  0  0  0  0  0  0  0  0  0  0  0
    9.4500   -2.6337   -0.9513 H   0  0  0  0  0  0  0  0  0  0  0  0
    8.7701   -0.7914   -2.2339 H   0  0  0  0  0  0  0  0  0  0  0  0
    7.5367   -1.9916   -2.7274 H   0  0  0  0  0  0  0  0  0  0  0  0
    6.1557   -0.1584   -2.2662 H   0  0  0  0  0  0  0  0  0  0  0  0
    7.2661    0.5096   -1.0228 H   0  0  0  0  0  0  0  0  0  0  0  0
    0.9077   -1.2702    0.5679 H   0  0  0  0  0  0  0  0  0  0  0  0
   -1.4584   -0.9791    1.1005 H   0  0  0  0  0  0  0  0  0  0  0  0
  1  2  3  0
  2  3  1  0
  3  4  1  0
  4  5  1  0
  5  6  1  0
  6  7  1  0
  7  8  1  0
  8  9  2  0
  8 10  1  0
 10 11  1  0
 11 12  1  0
 11 13  1  0
 13 14  1  0
 14 15  2  0
 15 16  1  0
 16 17  2  0
 17 18  1  0
 18 19  2  0
 19 20  1  0
 20 21  1  0
 21 22  1  0
 22 23  1  0
 23 24  1  0
 24 25  1  0
 25 26  1  0
 20 27  1  0
 27 28  2  0
 17 29  1  0
 29 30  2  0
  7  3  1  0
 30 14  1  0
 28 18  1  0
 26 21  1  0
  3 31  1  6
  4 32  1  0
  4 33  1  0
  5 34  1  0
  5 35  1  0
  6 36  1  0
  6 37  1  0
 10 38  1  0
 10 39  1  0
 11 40  1  6
 12 41  1  0
 12 42  1  0
 13 43  1  0
 13 44  1  0
 15 45  1  0
 16 46  1  0
 19 47  1  0
 21 48  1  0
 22 49  1  0
 22 50  1  0
 23 51  1  0
 23 52  1  0
 24 53  1  0
 24 54  1  0
 25 55  1  0
 25 56  1  0
 26 57  1  0
 26 58  1  0
 29 59  1  0
 30 60  1  0
M  END
$$$$
