
     RDKit          3D

 46 48  0  0  0  0  0  0  0  0999 V2000
    0.1599    4.4661    2.7769 C   0  0  0  0  0  0  0  0  0  0  0  0
   -0.1153    3.2247    2.0321 N   0  0  0  0  0  0  0  0  0  0  0  0
   -1.1972    2.4543    2.3615 C   0  0  0  0  0  0  0  0  0  0  0  0
   -1.9615    2.7818    3.3105 O   0  0  0  0  0  0  0  0  0  0  0  0
   -1.4705    1.2944    1.6510 C   0  0  0  0  0  0  0  0  0  0  0  0
   -0.6478    0.9368    0.5873 C   0  0  0  0  0  0  0  0  0  0  0  0
   -0.9353   -0.2797   -0.1209 N   0  0  0  0  0  0  0  0  0  0  0  0
   -0.5074   -1.5622    0.4516 C   0  0  0  0  0  0  0  0  0  0  0  0
   -1.7285   -2.4533    0.6937 C   0  0  0  0  0  0  0  0  0  0  0  0
   -2.6242   -2.6020   -0.5592 C   0  0  0  0  0  0  0  0  0  0  0  0
   -2.2277   -1.6643   -1.7252 C   0  0  1  0  0  0  0  0  0  0  0  0
   -3.2761   -1.6128   -2.7461 N   0  0  0  0  0  0  0  0  0  0  0  0
   -1.9184   -0.2479   -1.2130 C   0  0  0  0  0  0  0  0  0  0  0  0
    0.4149    1.7336    0.2397 N   0  0  0  0  0  0  0  0  0  0  0  0
    1.2806    1.3552   -0.8996 C   0  0  0  0  0  0  0  0  0  0  0  0
    2.1924    0.1947   -0.5481 C   0  0  0  0  0  0  0  0  0  0  0  0
    2.9030    0.2224    0.6669 C   0  0  0  0  0  0  0  0  0  0  0  0
    3.7636   -0.8211    1.0134 C   0  0  0  0  0  0  0  0  0  0  0  0
    3.9431   -1.8978    0.1458 C   0  0  0  0  0  0  0  0  0  0  0  0
    3.2696   -1.9308   -1.0760 C   0  0  0  0  0  0  0  0  0  0  0  0
    2.4025   -0.8897   -1.4370 C   0  0  0  0  0  0  0  0  0  0  0  0
    1.7324   -0.9710   -2.7130 C   0  0  0  0  0  0  0  0  0  0  0  0
    1.1939   -1.0371   -3.7352 N   0  0  0  0  0  0  0  0  0  0  0  0
    0.6723    2.8780    0.9612 C   0  0  0  0  0  0  0  0  0  0  0  0
    1.6449    3.6186    0.6396 O   0  0  0  0  0  0  0  0  0  0  0  0
    1.2517    4.6632    2.8368 H   0  0  0  0  0  0  0  0  0  0  0  0
   -0.3386    5.3207    2.2728 H   0  0  0  0  0  0  0  0  0  0  0  0
   -0.2018    4.4010    3.8252 H   0  0  0  0  0  0  0  0  0  0  0  0
   -2.3175    0.6736    1.9191 H   0  0  0  0  0  0  0  0  0  0  0  0
    0.0396   -1.4087    1.4081 H   0  0  0  0  0  0  0  0  0  0  0  0
    0.1818   -2.0724   -0.2526 H   0  0  0  0  0  0  0  0  0  0  0  0
   -2.3269   -2.0094    1.5194 H   0  0  0  0  0  0  0  0  0  0  0  0
   -1.3874   -3.4552    1.0336 H   0  0  0  0  0  0  0  0  0  0  0  0
   -2.5777   -3.6529   -0.9195 H   0  0  0  0  0  0  0  0  0  0  0  0
   -3.6782   -2.4057   -0.2632 H   0  0  0  0  0  0  0  0  0  0  0  0
   -1.3040   -2.0649   -2.2004 H   0  0  0  0  0  0  0  0  0  0  0  0
   -3.4274   -2.5792   -3.1171 H   0  0  0  0  0  0  0  0  0  0  0  0
   -4.1745   -1.3029   -2.3084 H   0  0  0  0  0  0  0  0  0  0  0  0
   -2.8559    0.2253   -0.8458 H   0  0  0  0  0  0  0  0  0  0  0  0
   -1.5284    0.3652   -2.0521 H   0  0  0  0  0  0  0  0  0  0  0  0
    1.9173    2.2003   -1.2361 H   0  0  0  0  0  0  0  0  0  0  0  0
    0.6407    1.1283   -1.7741 H   0  0  0  0  0  0  0  0  0  0  0  0
    2.7908    1.0513    1.3532 H   0  0  0  0  0  0  0  0  0  0  0  0
    4.2956   -0.7926    1.9556 H   0  0  0  0  0  0  0  0  0  0  0  0
    4.6110   -2.7051    0.4172 H   0  0  0  0  0  0  0  0  0  0  0  0
    3.4265   -2.7706   -1.7426 H   0  0  0  0  0  0  0  0  0  0  0  0
  1  2  1  0
  2  3  1  0
  3  4  2  0
  3  5  1  0
  5  6  2  0
  6  7  1  0
  7  8  1  0
  8  9  1  0
  9 10  1  0
 10 11  1  0
 11 12  1  0
 11 13  1  0
  6 14  1  0
 14 15  1  0
 15 16  1  0
 16 17  2  0
 17 18  1  0
 18 19  2  0
 19 20  1  0
 20 21  2  0
 21 22  1  0
 22 23  3  0
 14 24  1  0
 24 25  2  0
 24  2  1  0
 13  7  1  0
 21 16  1  0
  1 26  1  0
  1 27  1  0
  1 28  1  0
  5 29  1  0
  8 30  1  0
  8 31  1  0
  9 32  1  0
  9 33  1  0
 10 34  1  0
 10 35  1  0
 11 36  1  6
 12 37  1  0
 12 38  1  0
 13 39  1  0
 13 40  1  0
 15 41  1  0
 15 42  1  0
 17 43  1  0
 18 44  1  0
 19 45  1  0
 20 46  1  0
M  END
$$$$
