
     RDKit          3D

 53 56  0  0  0  0  0  0  0  0999 V2000
   -3.2510    3.2404   -2.5150 C   0  0  0  0  0  0  0  0  0  0  0  0
   -2.4582    2.0338   -2.2819 C   0  0  0  0  0  0  0  0  0  0  0  0
   -1.8064    1.0391   -2.0870 C   0  0  0  0  0  0  0  0  0  0  0  0
   -1.0173   -0.1713   -1.8424 C   0  0  0  0  0  0  0  0  0  0  0  0
   -0.8140   -0.3552   -0.4039 N   0  0  0  0  0  0  0  0  0  0  0  0
   -1.5127   -1.1571    0.4471 C   0  0  0  0  0  0  0  0  0  0  0  0
   -2.6784   -1.9118    0.0740 N   0  0  0  0  0  0  0  0  0  0  0  0
   -2.8720   -3.2592    0.6152 C   0  0  0  0  0  0  0  0  0  0  0  0
   -4.0558   -3.2778    1.6036 C   0  0  0  0  0  0  0  0  0  0  0  0
   -5.0785   -2.2477    1.3271 N   0  0  0  0  0  0  0  0  0  0  0  0
   -5.1432   -1.8842   -0.0951 C   0  0  0  0  0  0  0  0  0  0  0  0
   -3.8256   -1.2344   -0.5447 C   0  0  0  0  0  0  0  0  0  0  0  0
   -1.0304   -1.1549    1.7168 N   0  0  0  0  0  0  0  0  0  0  0  0
    0.0040   -0.2963    1.6393 C   0  0  0  0  0  0  0  0  0  0  0  0
    0.1338    0.1928    0.3830 C   0  0  0  0  0  0  0  0  0  0  0  0
    1.1255    1.1252    0.0949 C   0  0  0  0  0  0  0  0  0  0  0  0
    1.2497    1.5919   -1.0703 O   0  0  0  0  0  0  0  0  0  0  0  0
    1.9579    1.5314    1.1144 N   0  0  0  0  0  0  0  0  0  0  0  0
    3.0376    2.4980    0.8351 C   0  0  0  0  0  0  0  0  0  0  0  0
    4.2652    1.7763    0.3698 C   0  0  0  0  0  0  0  0  0  0  0  0
    5.2614    1.3322    1.2363 C   0  0  0  0  0  0  0  0  0  0  0  0
    6.4189    0.5284    0.3189 S   0  0  0  0  0  0  0  0  0  0  0  0
    5.5921    0.7567   -1.1271 C   0  0  0  0  0  0  0  0  0  0  0  0
    6.0836    0.3276   -2.4678 C   0  0  0  0  0  0  0  0  0  0  0  0
    6.8806    1.3398   -3.0136 O   0  0  0  0  0  0  0  0  0  0  0  0
    4.4514    1.4542   -0.9392 N   0  0  0  0  0  0  0  0  0  0  0  0
    1.8138    0.9988    2.3858 C   0  0  0  0  0  0  0  0  0  0  0  0
    2.5870    1.3702    3.3138 O   0  0  0  0  0  0  0  0  0  0  0  0
    0.8342    0.0680    2.6534 N   0  0  0  0  0  0  0  0  0  0  0  0
    0.6451   -0.4659    4.0091 C   0  0  0  0  0  0  0  0  0  0  0  0
   -2.7165    4.1198   -2.1006 H   0  0  0  0  0  0  0  0  0  0  0  0
   -4.2362    3.1372   -2.0153 H   0  0  0  0  0  0  0  0  0  0  0  0
   -3.4019    3.3790   -3.6053 H   0  0  0  0  0  0  0  0  0  0  0  0
   -0.0420   -0.0920   -2.3643 H   0  0  0  0  0  0  0  0  0  0  0  0
   -1.5360   -1.0497   -2.2764 H   0  0  0  0  0  0  0  0  0  0  0  0
   -3.0910   -3.9498   -0.2281 H   0  0  0  0  0  0  0  0  0  0  0  0
   -1.9500   -3.6338    1.1121 H   0  0  0  0  0  0  0  0  0  0  0  0
   -3.6651   -3.1361    2.6359 H   0  0  0  0  0  0  0  0  0  0  0  0
   -4.5365   -4.2790    1.5751 H   0  0  0  0  0  0  0  0  0  0  0  0
   -4.8482   -1.3866    1.8781 H   0  0  0  0  0  0  0  0  0  0  0  0
   -5.3508   -2.7910   -0.7055 H   0  0  0  0  0  0  0  0  0  0  0  0
   -5.9824   -1.1740   -0.2577 H   0  0  0  0  0  0  0  0  0  0  0  0
   -3.8407   -0.1656   -0.2360 H   0  0  0  0  0  0  0  0  0  0  0  0
   -3.7500   -1.2840   -1.6503 H   0  0  0  0  0  0  0  0  0  0  0  0
    2.7221    3.2295    0.0595 H   0  0  0  0  0  0  0  0  0  0  0  0
    3.2726    3.1089    1.7340 H   0  0  0  0  0  0  0  0  0  0  0  0
    5.2887    1.4782    2.3078 H   0  0  0  0  0  0  0  0  0  0  0  0
    5.2140    0.1287   -3.1326 H   0  0  0  0  0  0  0  0  0  0  0  0
    6.6763   -0.6078   -2.3619 H   0  0  0  0  0  0  0  0  0  0  0  0
    7.1802    1.0058   -3.8988 H   0  0  0  0  0  0  0  0  0  0  0  0
    0.1009   -1.4342    3.9921 H   0  0  0  0  0  0  0  0  0  0  0  0
    0.0682    0.2616    4.6178 H   0  0  0  0  0  0  0  0  0  0  0  0
    1.6261   -0.6541    4.4955 H   0  0  0  0  0  0  0  0  0  0  0  0
  1  2  1  0
  2  3  3  0
  3  4  1  0
  4  5  1  0
  5  6  1  0
  6  7  1  0
  7  8  1  0
  8  9  1  0
  9 10  1  0
 10 11  1  0
 11 12  1  0
  6 13  2  0
 13 14  1  0
 14 15  2  0
 15 16  1  0
 16 17  2  0
 16 18  1  0
 18 19  1  0
 19 20  1  0
 20 21  2  0
 21 22  1  0
 22 23  1  0
 23 24  1  0
 24 25  1  0
 23 26  2  0
 18 27  1  0
 27 28  2  0
 27 29  1  0
 29 30  1  0
 15  5  1  0
 26 20  1  0
 12  7  1  0
 29 14  1  0
  1 31  1  0
  1 32  1  0
  1 33  1  0
  4 34  1  0
  4 35  1  0
  8 36  1  0
  8 37  1  0
  9 38  1  0
  9 39  1  0
 10 40  1  0
 11 41  1  0
 11 42  1  0
 12 43  1  0
 12 44  1  0
 19 45  1  0
 19 46  1  0
 21 47  1  0
 24 48  1  0
 24 49  1  0
 25 50  1  0
 30 51  1  0
 30 52  1  0
 30 53  1  0
M  END
$$$$
