
     RDKit          3D

 63 65  0  0  0  0  0  0  0  0999 V2000
    6.8150   -2.4646    1.8824 C   0  0  0  0  0  0  0  0  0  0  0  0
    5.8236   -3.3349    0.6903 S   0  0  0  0  0  0  0  0  0  0  0  0
    6.6789   -3.7368   -0.4785 O   0  0  0  0  0  0  0  0  0  0  0  0
    5.2541   -4.5753    1.3200 O   0  0  0  0  0  0  0  0  0  0  0  0
    4.5178   -2.2893    0.1418 C   0  0  0  0  0  0  0  0  0  0  0  0
    3.2885   -2.2919    0.8061 C   0  0  0  0  0  0  0  0  0  0  0  0
    2.2575   -1.4527    0.3808 C   0  0  0  0  0  0  0  0  0  0  0  0
    2.4341   -0.5910   -0.7187 C   0  0  0  0  0  0  0  0  0  0  0  0
    1.2954    0.2651   -1.1376 C   0  0  0  0  0  0  0  0  0  0  0  0
    1.1838    0.8582   -2.3437 N   0  0  0  0  0  0  0  0  0  0  0  0
    0.0355    1.4622   -2.3214 O   0  0  0  0  0  0  0  0  0  0  0  0
   -0.5434    1.2594   -1.1644 C   0  0  0  0  0  0  0  0  0  0  0  0
   -1.9128    1.7646   -0.7894 C   0  0  1  0  0  0  0  0  0  0  0  0
   -2.0388    3.2698   -1.1121 C   0  0  0  0  0  0  0  0  0  0  0  0
   -1.0151    4.1025   -0.3203 C   0  0  0  0  0  0  0  0  0  0  0  0
   -1.4473    4.5122    1.0794 C   0  0  0  0  0  0  0  0  0  0  0  0
   -1.4243    5.5408   -0.0414 C   0  0  0  0  0  0  0  0  0  0  0  0
   -3.0138    0.9318   -1.5141 C   0  0  2  0  0  0  0  0  0  0  0  0
   -4.3698    1.2612   -1.0575 N   0  0  0  0  0  0  0  0  0  0  0  0
   -2.7821   -0.5630   -1.4007 C   0  0  0  0  0  0  0  0  0  0  0  0
   -2.5045   -1.1994   -2.4541 O   0  0  0  0  0  0  0  0  0  0  0  0
   -2.7935   -1.2685   -0.1426 N   0  0  0  0  0  0  0  0  0  0  0  0
   -3.5344   -0.8658    1.0428 C   0  0  0  0  0  0  0  0  0  0  0  0
   -3.2212   -1.9127    2.1037 C   0  0  0  0  0  0  0  0  0  0  0  0
   -2.6460   -3.1094    1.3526 C   0  0  2  0  0  0  0  0  0  0  0  0
   -1.6042   -3.6861    2.0598 F   0  0  0  0  0  0  0  0  0  0  0  0
   -2.1639   -2.5701    0.0124 C   0  0  0  0  0  0  0  0  0  0  0  0
    0.2142    0.4906   -0.3604 N   0  0  0  0  0  0  0  0  0  0  0  0
    3.6888   -0.5794   -1.3782 C   0  0  0  0  0  0  0  0  0  0  0  0
    4.0572    0.5019   -2.7191 Cl  0  0  0  0  0  0  0  0  0  0  0  0
    4.7154   -1.4265   -0.9412 C   0  0  0  0  0  0  0  0  0  0  0  0
    0.6724    0.0540   -1.5823 O   0  0  0  0  0  0  0  0  0  0  0  0
    0.4534    0.0249   -0.3416 C   0  0  0  0  0  0  0  0  0  0  0  0
    1.5199   -0.0533    0.5490 O   0  0  0  0  0  0  0  0  0  0  0  0
   -0.9506    0.0140    0.1699 C   0  0  0  0  0  0  0  0  0  0  0  0
   -1.4410   -1.2776    0.1357 F   0  0  0  0  0  0  0  0  0  0  0  0
   -1.7471    0.8257   -0.6174 F   0  0  0  0  0  0  0  0  0  0  0  0
   -0.9829    0.4786    1.4721 F   0  0  0  0  0  0  0  0  0  0  0  0
    7.2411   -1.5529    1.4152 H   0  0  0  0  0  0  0  0  0  0  0  0
    6.1842   -2.1741    2.7478 H   0  0  0  0  0  0  0  0  0  0  0  0
    7.6394   -3.1205    2.2305 H   0  0  0  0  0  0  0  0  0  0  0  0
    3.1260   -2.9431    1.6555 H   0  0  0  0  0  0  0  0  0  0  0  0
    1.3137   -1.4869    0.9112 H   0  0  0  0  0  0  0  0  0  0  0  0
   -2.0253    1.6485    0.3078 H   0  0  0  0  0  0  0  0  0  0  0  0
   -1.8679    3.4402   -2.1971 H   0  0  0  0  0  0  0  0  0  0  0  0
   -3.0720    3.6118   -0.8861 H   0  0  0  0  0  0  0  0  0  0  0  0
    0.0752    3.9443   -0.4645 H   0  0  0  0  0  0  0  0  0  0  0  0
   -0.6124    4.6144    1.8043 H   0  0  0  0  0  0  0  0  0  0  0  0
   -2.4678    4.1980    1.3869 H   0  0  0  0  0  0  0  0  0  0  0  0
   -0.5779    6.2565    0.0253 H   0  0  0  0  0  0  0  0  0  0  0  0
   -2.4330    5.8457   -0.3935 H   0  0  0  0  0  0  0  0  0  0  0  0
   -2.9500    1.1836   -2.5994 H   0  0  0  0  0  0  0  0  0  0  0  0
   -4.7320    2.0651   -1.6201 H   0  0  0  0  0  0  0  0  0  0  0  0
   -4.3593    1.5732   -0.0603 H   0  0  0  0  0  0  0  0  0  0  0  0
   -3.2111    0.1296    1.4030 H   0  0  0  0  0  0  0  0  0  0  0  0
   -4.6227   -0.8578    0.8177 H   0  0  0  0  0  0  0  0  0  0  0  0
   -4.1324   -2.1946    2.6747 H   0  0  0  0  0  0  0  0  0  0  0  0
   -2.4606   -1.5102    2.8092 H   0  0  0  0  0  0  0  0  0  0  0  0
   -3.4451   -3.8657    1.1886 H   0  0  0  0  0  0  0  0  0  0  0  0
   -2.4710   -3.2554   -0.8074 H   0  0  0  0  0  0  0  0  0  0  0  0
   -1.0589   -2.4475    0.0042 H   0  0  0  0  0  0  0  0  0  0  0  0
    5.6750   -1.4051   -1.4429 H   0  0  0  0  0  0  0  0  0  0  0  0
    2.4761   -0.0662    0.2147 H   0  0  0  0  0  0  0  0  0  0  0  0
  1  2  1  0
  2  3  2  0
  2  4  2  0
  2  5  1  0
  5  6  2  0
  6  7  1  0
  7  8  2  0
  8  9  1  0
  9 10  2  0
 10 11  1  0
 11 12  1  0
 12 13  1  0
 13 14  1  0
 14 15  1  0
 15 16  1  0
 16 17  1  0
 13 18  1  0
 18 19  1  0
 18 20  1  0
 20 21  2  0
 20 22  1  0
 22 23  1  0
 23 24  1  0
 24 25  1  0
 25 26  1  0
 25 27  1  0
 12 28  2  0
  8 29  1  0
 29 30  1  0
 29 31  2  0
 32 33  2  0
 33 34  1  0
 33 35  1  0
 35 36  1  0
 35 37  1  0
 35 38  1  0
 31  5  1  0
 28  9  1  0
 17 15  1  0
 27 22  1  0
  1 39  1  0
  1 40  1  0
  1 41  1  0
  6 42  1  0
  7 43  1  0
 13 44  1  1
 14 45  1  0
 14 46  1  0
 15 47  1  0
 16 48  1  0
 16 49  1  0
 17 50  1  0
 17 51  1  0
 18 52  1  6
 19 53  1  0
 19 54  1  0
 23 55  1  0
 23 56  1  0
 24 57  1  0
 24 58  1  0
 25 59  1  6
 27 60  1  0
 27 61  1  0
 31 62  1  0
 34 63  1  0
M  END
$$$$
