
     RDKit          3D

 59 62  0  0  0  0  0  0  0  0999 V2000
    4.8596    0.1192    2.4308 N   0  0  0  0  0  0  0  0  0  0  0  0
    4.3074   -1.1976    2.1059 C   0  0  2  0  0  0  0  0  0  0  0  0
    5.3351   -2.0872    1.4289 C   0  0  0  0  0  0  0  0  0  0  0  0
    5.3806   -3.3012    1.7683 O   0  0  0  0  0  0  0  0  0  0  0  0
    6.1674   -1.6381    0.3404 N   0  0  0  0  0  0  0  0  0  0  0  0
    6.5394   -2.5547   -0.7269 C   0  0  0  0  0  0  0  0  0  0  0  0
    7.2259   -1.7477   -1.8128 C   0  0  0  0  0  0  0  0  0  0  0  0
    8.0702   -0.3565   -1.0144 S   0  0  0  0  0  0  0  0  0  0  0  0
    6.8374   -0.3436    0.3195 C   0  0  0  0  0  0  0  0  0  0  0  0
    3.0089   -1.0956    1.2517 C   0  0  1  0  0  0  0  0  0  0  0  0
    1.8026   -0.5402    2.0689 C   0  0  0  0  0  0  0  0  0  0  0  0
    1.4128    0.8879    1.6625 C   0  0  0  0  0  0  0  0  0  0  0  0
    1.0536    0.9876    0.1612 C   0  0  2  0  0  0  0  0  0  0  0  0
   -0.3805    0.7434   -0.0265 N   0  0  0  0  0  0  0  0  0  0  0  0
   -1.3524    1.7957   -0.0366 C   0  0  0  0  0  0  0  0  0  0  0  0
   -0.9893    3.0026    0.0284 O   0  0  0  0  0  0  0  0  0  0  0  0
   -2.7087    1.4693   -0.1159 O   0  0  0  0  0  0  0  0  0  0  0  0
   -3.7370    2.4534   -0.1270 C   0  0  0  0  0  0  0  0  0  0  0  0
   -5.0716    1.7730   -0.2181 C   0  0  0  0  0  0  0  0  0  0  0  0
   -5.7483    1.3885    0.9497 C   0  0  0  0  0  0  0  0  0  0  0  0
   -6.9735    0.7212    0.8716 C   0  0  0  0  0  0  0  0  0  0  0  0
   -7.5330    0.4173   -0.3777 C   0  0  0  0  0  0  0  0  0  0  0  0
   -8.7626   -0.2536   -0.4676 C   0  0  0  0  0  0  0  0  0  0  0  0
   -9.3071   -0.5555   -1.7192 C   0  0  0  0  0  0  0  0  0  0  0  0
   -8.6306   -0.1923   -2.8868 C   0  0  0  0  0  0  0  0  0  0  0  0
   -7.4051    0.4759   -2.8112 C   0  0  0  0  0  0  0  0  0  0  0  0
   -6.8478    0.7866   -1.5608 C   0  0  0  0  0  0  0  0  0  0  0  0
   -5.6181    1.4568   -1.4719 C   0  0  0  0  0  0  0  0  0  0  0  0
    1.8753    0.0175   -0.7239 C   0  0  0  0  0  0  0  0  0  0  0  0
    3.2204   -0.3317   -0.0813 C   0  0  0  0  0  0  0  0  0  0  0  0
    4.1628    0.6418    3.0076 H   0  0  0  0  0  0  0  0  0  0  0  0
    5.6849   -0.0211    3.0583 H   0  0  0  0  0  0  0  0  0  0  0  0
    4.0385   -1.6993    3.0651 H   0  0  0  0  0  0  0  0  0  0  0  0
    7.2348   -3.3245   -0.3273 H   0  0  0  0  0  0  0  0  0  0  0  0
    5.6354   -3.0525   -1.1408 H   0  0  0  0  0  0  0  0  0  0  0  0
    6.4684   -1.3439   -2.5184 H   0  0  0  0  0  0  0  0  0  0  0  0
    7.9534   -2.3729   -2.3721 H   0  0  0  0  0  0  0  0  0  0  0  0
    6.1086    0.4670    0.1239 H   0  0  0  0  0  0  0  0  0  0  0  0
    7.3620   -0.1671    1.2814 H   0  0  0  0  0  0  0  0  0  0  0  0
    2.7323   -2.1398    0.9767 H   0  0  0  0  0  0  0  0  0  0  0  0
    2.0058   -0.5623    3.1612 H   0  0  0  0  0  0  0  0  0  0  0  0
    0.9190   -1.1964    1.9049 H   0  0  0  0  0  0  0  0  0  0  0  0
    2.2628    1.5699    1.8806 H   0  0  0  0  0  0  0  0  0  0  0  0
    0.5588    1.2315    2.2863 H   0  0  0  0  0  0  0  0  0  0  0  0
    1.2988    2.0214   -0.1706 H   0  0  0  0  0  0  0  0  0  0  0  0
   -0.7352   -0.2388    0.0174 H   0  0  0  0  0  0  0  0  0  0  0  0
   -3.6811    3.0647    0.8005 H   0  0  0  0  0  0  0  0  0  0  0  0
   -3.5951    3.1344   -0.9948 H   0  0  0  0  0  0  0  0  0  0  0  0
   -5.3259    1.6059    1.9231 H   0  0  0  0  0  0  0  0  0  0  0  0
   -7.4808    0.4394    1.7867 H   0  0  0  0  0  0  0  0  0  0  0  0
   -9.3003   -0.5442    0.4271 H   0  0  0  0  0  0  0  0  0  0  0  0
  -10.2555   -1.0730   -1.7843 H   0  0  0  0  0  0  0  0  0  0  0  0
   -9.0570   -0.4295   -3.8529 H   0  0  0  0  0  0  0  0  0  0  0  0
   -6.8949    0.7496   -3.7271 H   0  0  0  0  0  0  0  0  0  0  0  0
   -5.0846    1.7329   -2.3746 H   0  0  0  0  0  0  0  0  0  0  0  0
    2.0511    0.4833   -1.7181 H   0  0  0  0  0  0  0  0  0  0  0  0
    1.3162   -0.9284   -0.8988 H   0  0  0  0  0  0  0  0  0  0  0  0
    3.8037   -0.9594   -0.7883 H   0  0  0  0  0  0  0  0  0  0  0  0
    3.7819    0.6111    0.0879 H   0  0  0  0  0  0  0  0  0  0  0  0
  1  2  1  0
  2  3  1  0
  3  4  2  0
  3  5  1  0
  5  6  1  0
  6  7  1  0
  7  8  1  0
  8  9  1  0
  2 10  1  0
 10 11  1  0
 11 12  1  0
 12 13  1  0
 13 14  1  0
 14 15  1  0
 15 16  2  0
 15 17  1  0
 17 18  1  0
 18 19  1  0
 19 20  2  0
 20 21  1  0
 21 22  2  0
 22 23  1  0
 23 24  2  0
 24 25  1  0
 25 26  2  0
 26 27  1  0
 27 28  2  0
 13 29  1  0
 29 30  1  0
  9  5  1  0
 30 10  1  0
 28 19  1  0
 27 22  1  0
  1 31  1  0
  1 32  1  0
  2 33  1  1
  6 34  1  0
  6 35  1  0
  7 36  1  0
  7 37  1  0
  9 38  1  0
  9 39  1  0
 10 40  1  6
 11 41  1  0
 11 42  1  0
 12 43  1  0
 12 44  1  0
 13 45  1  6
 14 46  1  0
 18 47  1  0
 18 48  1  0
 20 49  1  0
 21 50  1  0
 23 51  1  0
 24 52  1  0
 25 53  1  0
 26 54  1  0
 28 55  1  0
 29 56  1  0
 29 57  1  0
 30 58  1  0
 30 59  1  0
M  END
$$$$
