
     RDKit          3D

 51 52  0  0  0  0  0  0  0  0999 V2000
    0.6878    0.0000    0.0000 Cl  0  0  0  0  0  0  0  0  0  0  0  0
   -2.1142   -0.9766    0.8122 N   0  0  0  0  0  0  0  0  0  0  0  0
   -2.0440   -0.1518   -0.3989 C   0  0  1  0  0  0  0  0  0  0  0  0
   -0.6816   -0.3092   -1.1130 C   0  0  0  0  0  0  0  0  0  0  0  0
    0.4793    0.1374   -0.2656 C   0  0  0  0  0  0  0  0  0  0  0  0
    0.4032    1.2227    0.3725 O   0  0  0  0  0  0  0  0  0  0  0  0
    1.7092   -0.6170   -0.2616 N   0  0  0  0  0  0  0  0  0  0  0  0
    2.3935   -0.7948   -1.5534 C   0  0  0  0  0  0  0  0  0  0  0  0
    3.3647    0.3806   -1.7848 C   0  0  0  0  0  0  0  0  0  0  0  0
    4.0362    0.7464   -0.5320 N   0  0  0  0  0  0  0  0  0  0  0  0
    3.6725    0.3625    0.7034 C   0  0  0  0  0  0  0  0  0  0  0  0
    4.4490    0.9291    1.6467 N   0  0  0  0  0  0  0  0  0  0  0  0
    5.3049    1.7193    1.0107 N   0  0  0  0  0  0  0  0  0  0  0  0
    5.0434    1.6113   -0.3092 C   0  0  0  0  0  0  0  0  0  0  0  0
    5.7875    2.3558   -1.3750 C   0  0  0  0  0  0  0  0  0  0  0  0
    6.7165    3.2064   -0.8032 F   0  0  0  0  0  0  0  0  0  0  0  0
    6.4442    1.4575   -2.1949 F   0  0  0  0  0  0  0  0  0  0  0  0
    4.9003    3.1008   -2.1290 F   0  0  0  0  0  0  0  0  0  0  0  0
    2.5978   -0.6675    0.9211 C   0  0  0  0  0  0  0  0  0  0  0  0
    1.8412   -0.5104    2.2679 C   0  0  0  0  0  0  0  0  0  0  0  0
    2.5020   -1.2603    3.4332 C   0  0  0  0  0  0  0  0  0  0  0  0
    3.7973   -0.8242    3.6355 F   0  0  0  0  0  0  0  0  0  0  0  0
    2.5157   -2.6203    3.1778 F   0  0  0  0  0  0  0  0  0  0  0  0
    1.7750   -1.0355    4.5880 F   0  0  0  0  0  0  0  0  0  0  0  0
   -3.1904   -0.5317   -1.3542 C   0  0  0  0  0  0  0  0  0  0  0  0
   -4.5393   -0.2676   -0.7305 C   0  0  0  0  0  0  0  0  0  0  0  0
   -5.0825    1.0282   -0.7654 C   0  0  0  0  0  0  0  0  0  0  0  0
   -6.3182    1.2933   -0.1672 C   0  0  0  0  0  0  0  0  0  0  0  0
   -6.8345    2.5465   -0.2100 F   0  0  0  0  0  0  0  0  0  0  0  0
   -7.0182    0.2688    0.4769 C   0  0  0  0  0  0  0  0  0  0  0  0
   -8.2161    0.5248    1.0586 F   0  0  0  0  0  0  0  0  0  0  0  0
   -6.4812   -1.0205    0.5257 C   0  0  0  0  0  0  0  0  0  0  0  0
   -5.2454   -1.2917   -0.0709 C   0  0  0  0  0  0  0  0  0  0  0  0
   -4.7393   -2.5492   -0.0016 F   0  0  0  0  0  0  0  0  0  0  0  0
   -0.6878    0.0000    0.0000 H   0  0  0  0  0  0  0  0  0  0  0  0
   -1.7773   -1.9444    0.6009 H   0  0  0  0  0  0  0  0  0  0  0  0
   -1.4854   -0.5691    1.5403 H   0  0  0  0  0  0  0  0  0  0  0  0
   -2.1748    0.9175   -0.1159 H   0  0  0  0  0  0  0  0  0  0  0  0
   -0.5395   -1.3731   -1.4040 H   0  0  0  0  0  0  0  0  0  0  0  0
   -0.6777    0.2997   -2.0427 H   0  0  0  0  0  0  0  0  0  0  0  0
    1.6711   -0.8584   -2.3951 H   0  0  0  0  0  0  0  0  0  0  0  0
    2.9669   -1.7474   -1.5384 H   0  0  0  0  0  0  0  0  0  0  0  0
    4.1168    0.0978   -2.5516 H   0  0  0  0  0  0  0  0  0  0  0  0
    2.7910    1.2575   -2.1543 H   0  0  0  0  0  0  0  0  0  0  0  0
    3.0973   -1.6611    0.9171 H   0  0  0  0  0  0  0  0  0  0  0  0
    0.8183   -0.9298    2.1647 H   0  0  0  0  0  0  0  0  0  0  0  0
    1.7401    0.5648    2.5328 H   0  0  0  0  0  0  0  0  0  0  0  0
   -3.1006   -1.6006   -1.6476 H   0  0  0  0  0  0  0  0  0  0  0  0
   -3.1061    0.0626   -2.2909 H   0  0  0  0  0  0  0  0  0  0  0  0
   -4.5462    1.8320   -1.2548 H   0  0  0  0  0  0  0  0  0  0  0  0
   -7.0224   -1.8112    1.0295 H   0  0  0  0  0  0  0  0  0  0  0  0
  2  3  1  0
  3  4  1  0
  4  5  1  0
  5  6  2  0
  5  7  1  0
  7  8  1  0
  8  9  1  0
  9 10  1  0
 10 11  1  0
 11 12  2  0
 12 13  1  0
 13 14  2  0
 14 15  1  0
 15 16  1  0
 15 17  1  0
 15 18  1  0
 11 19  1  0
 19 20  1  0
 20 21  1  0
 21 22  1  0
 21 23  1  0
 21 24  1  0
  3 25  1  0
 25 26  1  0
 26 27  2  0
 27 28  1  0
 28 29  1  0
 28 30  2  0
 30 31  1  0
 30 32  1  0
 32 33  2  0
 33 34  1  0
 19  7  1  0
 33 26  1  0
 14 10  1  0
  1 35  1  0
  2 36  1  0
  2 37  1  0
  3 38  1  1
  4 39  1  0
  4 40  1  0
  8 41  1  0
  8 42  1  0
  9 43  1  0
  9 44  1  0
 19 45  1  0
 20 46  1  0
 20 47  1  0
 25 48  1  0
 25 49  1  0
 27 50  1  0
 32 51  1  0
M  END
$$$$
