
     RDKit          3D

 57 61  0  0  0  0  0  0  0  0999 V2000
    3.8540    1.6382   -1.9829 N   0  0  0  0  0  0  0  0  0  0  0  0
    3.7758    1.3205   -0.8729 C   0  0  0  0  0  0  0  0  0  0  0  0
    3.6762    0.9154    0.5389 C   0  0  2  0  0  0  0  0  0  0  0  0
    3.8914    2.1118    1.4659 C   0  0  0  0  0  0  0  0  0  0  0  0
    5.3521    2.0291    1.9062 C   0  0  0  0  0  0  0  0  0  0  0  0
    5.5003    2.4505    3.2170 F   0  0  0  0  0  0  0  0  0  0  0  0
    6.1364    2.8154    1.0778 F   0  0  0  0  0  0  0  0  0  0  0  0
    5.7419    0.5621    1.7539 C   0  0  0  0  0  0  0  0  0  0  0  0
    4.7469   -0.0187    0.8660 N   0  0  0  0  0  0  0  0  0  0  0  0
    4.7825   -1.4049    0.4728 C   0  0  0  0  0  0  0  0  0  0  0  0
    5.7668   -2.1211    0.8015 O   0  0  0  0  0  0  0  0  0  0  0  0
    3.6472   -2.0383   -0.2816 C   0  0  0  0  0  0  0  0  0  0  0  0
    2.4990   -2.2500    0.5980 N   0  0  0  0  0  0  0  0  0  0  0  0
    1.2293   -2.6707    0.0818 C   0  0  0  0  0  0  0  0  0  0  0  0
    1.0956   -2.9078   -1.1498 O   0  0  0  0  0  0  0  0  0  0  0  0
    0.0796   -2.8554    0.9941 C   0  0  0  0  0  0  0  0  0  0  0  0
    0.2669   -3.6255    2.1517 C   0  0  0  0  0  0  0  0  0  0  0  0
   -0.8036   -3.8655    3.0116 C   0  0  0  0  0  0  0  0  0  0  0  0
   -2.0285   -3.3511    2.7373 N   0  0  0  0  0  0  0  0  0  0  0  0
   -2.2558   -2.5855    1.6377 C   0  0  0  0  0  0  0  0  0  0  0  0
   -3.5349   -2.0676    1.4124 C   0  0  0  0  0  0  0  0  0  0  0  0
   -3.7792   -1.2532    0.3066 C   0  0  0  0  0  0  0  0  0  0  0  0
   -2.7413   -0.9327   -0.5796 C   0  0  0  0  0  0  0  0  0  0  0  0
   -2.9978   -0.0589   -1.7460 C   0  0  0  0  0  0  0  0  0  0  0  0
   -2.8173   -0.5931   -3.0321 C   0  0  0  0  0  0  0  0  0  0  0  0
   -3.0968    0.1714   -4.1643 C   0  0  0  0  0  0  0  0  0  0  0  0
   -3.5557    1.4804   -4.0298 C   0  0  0  0  0  0  0  0  0  0  0  0
   -3.7186    2.0453   -2.7589 C   0  0  0  0  0  0  0  0  0  0  0  0
   -3.4236    1.2868   -1.6020 C   0  0  0  0  0  0  0  0  0  0  0  0
   -3.6547    1.9102   -0.2360 C   0  0  0  0  0  0  0  0  0  0  0  0
   -3.3977    3.4221   -0.2300 C   0  0  0  0  0  0  0  0  0  0  0  0
   -4.0907    4.0808   -1.3821 C   0  0  0  0  0  0  0  0  0  0  0  0
   -4.5393    5.2522   -1.2676 O   0  0  0  0  0  0  0  0  0  0  0  0
   -4.1712    3.4013   -2.6368 N   0  0  0  0  0  0  0  0  0  0  0  0
   -1.4588   -1.4623   -0.3685 C   0  0  0  0  0  0  0  0  0  0  0  0
   -1.2012   -2.3054    0.7329 C   0  0  0  0  0  0  0  0  0  0  0  0
    2.6801    0.4621    0.7298 H   0  0  0  0  0  0  0  0  0  0  0  0
    3.2337    1.9991    2.3564 H   0  0  0  0  0  0  0  0  0  0  0  0
    3.6600    3.0889    0.9852 H   0  0  0  0  0  0  0  0  0  0  0  0
    6.7583    0.4631    1.3145 H   0  0  0  0  0  0  0  0  0  0  0  0
    5.7074    0.0429    2.7366 H   0  0  0  0  0  0  0  0  0  0  0  0
    3.3566   -1.3856   -1.1307 H   0  0  0  0  0  0  0  0  0  0  0  0
    3.9700   -3.0156   -0.7016 H   0  0  0  0  0  0  0  0  0  0  0  0
    2.5846   -2.0491    1.6210 H   0  0  0  0  0  0  0  0  0  0  0  0
    1.2330   -4.0608    2.3769 H   0  0  0  0  0  0  0  0  0  0  0  0
   -0.6614   -4.4694    3.8978 H   0  0  0  0  0  0  0  0  0  0  0  0
   -4.3426   -2.2922    2.0983 H   0  0  0  0  0  0  0  0  0  0  0  0
   -4.7777   -0.8671    0.1429 H   0  0  0  0  0  0  0  0  0  0  0  0
   -2.4804   -1.6152   -3.1578 H   0  0  0  0  0  0  0  0  0  0  0  0
   -2.9654   -0.2559   -5.1500 H   0  0  0  0  0  0  0  0  0  0  0  0
   -3.7745    2.0607   -4.9173 H   0  0  0  0  0  0  0  0  0  0  0  0
   -2.9861    1.4553    0.5254 H   0  0  0  0  0  0  0  0  0  0  0  0
   -4.7063    1.7174    0.0676 H   0  0  0  0  0  0  0  0  0  0  0  0
   -2.3062    3.6131   -0.3151 H   0  0  0  0  0  0  0  0  0  0  0  0
   -3.7563    3.8533    0.7297 H   0  0  0  0  0  0  0  0  0  0  0  0
   -4.5323    3.9131   -3.4736 H   0  0  0  0  0  0  0  0  0  0  0  0
   -0.6700   -1.1838   -1.0540 H   0  0  0  0  0  0  0  0  0  0  0  0
  1  2  3  0
  2  3  1  0
  3  4  1  0
  4  5  1  0
  5  6  1  0
  5  7  1  0
  5  8  1  0
  8  9  1  0
  9 10  1  0
 10 11  2  0
 10 12  1  0
 12 13  1  0
 13 14  1  0
 14 15  2  0
 14 16  1  0
 16 17  2  0
 17 18  1  0
 18 19  2  0
 19 20  1  0
 20 21  2  0
 21 22  1  0
 22 23  2  0
 23 24  1  0
 24 25  2  0
 25 26  1  0
 26 27  2  0
 27 28  1  0
 28 29  2  0
 29 30  1  0
 30 31  1  0
 31 32  1  0
 32 33  2  0
 32 34  1  0
 23 35  1  0
 35 36  2  0
  9  3  1  0
 36 16  1  0
 36 20  1  0
 29 24  1  0
 34 28  1  0
  3 37  1  6
  4 38  1  0
  4 39  1  0
  8 40  1  0
  8 41  1  0
 12 42  1  0
 12 43  1  0
 13 44  1  0
 17 45  1  0
 18 46  1  0
 21 47  1  0
 22 48  1  0
 25 49  1  0
 26 50  1  0
 27 51  1  0
 30 52  1  0
 30 53  1  0
 31 54  1  0
 31 55  1  0
 34 56  1  0
 35 57  1  0
M  END
$$$$
