
     RDKit          3D

 40 42  0  0  0  0  0  0  0  0999 V2000
    4.8352    0.5421   -1.9001 N   0  0  0  0  0  0  0  0  0  0  0  0
    4.1081    0.6967   -1.0131 C   0  0  0  0  0  0  0  0  0  0  0  0
    3.1823    0.8926    0.1148 C   0  0  2  0  0  0  0  0  0  0  0  0
    3.9411    1.3056    1.3755 C   0  0  0  0  0  0  0  0  0  0  0  0
    4.1096    0.0266    2.1899 C   0  0  0  0  0  0  0  0  0  0  0  0
    2.9966   -0.9038    1.7260 C   0  0  0  0  0  0  0  0  0  0  0  0
    2.5382   -0.3700    0.4530 N   0  0  0  0  0  0  0  0  0  0  0  0
    1.4617   -0.9769   -0.2895 C   0  0  0  0  0  0  0  0  0  0  0  0
    0.9678   -2.0624    0.1230 O   0  0  0  0  0  0  0  0  0  0  0  0
    0.8495   -0.2901   -1.5003 C   0  0  2  0  0  0  0  0  0  0  0  0
   -0.2276    0.7121   -1.0712 C   0  0  0  0  0  0  0  0  0  0  0  0
   -1.5514    0.1227   -1.5574 C   0  0  2  0  0  0  0  0  0  0  0  0
   -2.6299    0.0931   -0.4886 C   0  0  0  0  0  0  0  0  0  0  0  0
   -2.4193   -0.5585    0.7423 C   0  0  0  0  0  0  0  0  0  0  0  0
   -3.4249   -0.5820    1.7121 C   0  0  0  0  0  0  0  0  0  0  0  0
   -4.6509    0.0396    1.4662 C   0  0  0  0  0  0  0  0  0  0  0  0
   -4.8776    0.6871    0.2483 C   0  0  0  0  0  0  0  0  0  0  0  0
   -6.1062    1.3014    0.0159 O   0  0  0  0  0  0  0  0  0  0  0  0
   -3.8700    0.7126   -0.7268 C   0  0  0  0  0  0  0  0  0  0  0  0
   -1.2018   -1.2664   -2.0827 C   0  0  0  0  0  0  0  0  0  0  0  0
    0.2161   -1.2403   -2.4237 N   0  0  0  0  0  0  0  0  0  0  0  0
    2.4278    1.6662   -0.1447 H   0  0  0  0  0  0  0  0  0  0  0  0
    3.3197    2.0233    1.9556 H   0  0  0  0  0  0  0  0  0  0  0  0
    4.9230    1.7846    1.1624 H   0  0  0  0  0  0  0  0  0  0  0  0
    4.0434    0.2286    3.2811 H   0  0  0  0  0  0  0  0  0  0  0  0
    5.0976   -0.4299    1.9604 H   0  0  0  0  0  0  0  0  0  0  0  0
    3.3786   -1.9397    1.5970 H   0  0  0  0  0  0  0  0  0  0  0  0
    2.1585   -0.8974    2.4567 H   0  0  0  0  0  0  0  0  0  0  0  0
    1.6444    0.2414   -2.0623 H   0  0  0  0  0  0  0  0  0  0  0  0
   -0.0492    1.6912   -1.5689 H   0  0  0  0  0  0  0  0  0  0  0  0
   -0.2150    0.8979    0.0262 H   0  0  0  0  0  0  0  0  0  0  0  0
   -1.8943    0.7325   -2.4248 H   0  0  0  0  0  0  0  0  0  0  0  0
   -1.4770   -1.0472    0.9523 H   0  0  0  0  0  0  0  0  0  0  0  0
   -3.2534   -1.0837    2.6557 H   0  0  0  0  0  0  0  0  0  0  0  0
   -5.4259    0.0175    2.2218 H   0  0  0  0  0  0  0  0  0  0  0  0
   -6.3032    1.7791   -0.8558 H   0  0  0  0  0  0  0  0  0  0  0  0
   -4.0564    1.2152   -1.6679 H   0  0  0  0  0  0  0  0  0  0  0  0
   -1.3905   -2.0560   -1.3207 H   0  0  0  0  0  0  0  0  0  0  0  0
   -1.8012   -1.5044   -2.9876 H   0  0  0  0  0  0  0  0  0  0  0  0
    0.6266   -2.2009   -2.3503 H   0  0  0  0  0  0  0  0  0  0  0  0
  1  2  3  0
  2  3  1  0
  3  4  1  0
  4  5  1  0
  5  6  1  0
  6  7  1  0
  7  8  1  0
  8  9  2  0
  8 10  1  0
 10 11  1  0
 11 12  1  0
 12 13  1  0
 13 14  2  0
 14 15  1  0
 15 16  2  0
 16 17  1  0
 17 18  1  0
 17 19  2  0
 12 20  1  0
 20 21  1  0
  7  3  1  0
 21 10  1  0
 19 13  1  0
  3 22  1  6
  4 23  1  0
  4 24  1  0
  5 25  1  0
  5 26  1  0
  6 27  1  0
  6 28  1  0
 10 29  1  6
 11 30  1  0
 11 31  1  0
 12 32  1  6
 14 33  1  0
 15 34  1  0
 16 35  1  0
 18 36  1  0
 19 37  1  0
 20 38  1  0
 20 39  1  0
 21 40  1  0
M  END
$$$$
