
     RDKit          3D

 55 57  0  0  0  0  0  0  0  0999 V2000
    7.4004    2.9993    1.2263 C   0  0  0  0  0  0  0  0  0  0  0  0
    6.3972    1.9122    0.9811 C   0  0  0  0  0  0  0  0  0  0  0  0
    6.5895    0.6291    1.5421 C   0  0  0  0  0  0  0  0  0  0  0  0
    5.6741   -0.4040    1.2858 C   0  0  0  0  0  0  0  0  0  0  0  0
    4.5826   -0.1387    0.4593 C   0  0  0  0  0  0  0  0  0  0  0  0
    4.3983    1.1022   -0.1017 C   0  0  0  0  0  0  0  0  0  0  0  0
    5.2937    2.1457    0.1357 C   0  0  0  0  0  0  0  0  0  0  0  0
    3.1805    1.1231   -0.9465 C   0  0  0  0  0  0  0  0  0  0  0  0
    2.6568   -0.2378   -0.8099 N   0  0  0  0  0  0  0  0  0  0  0  0
    1.5031   -0.7039   -1.5322 C   0  0  0  0  0  0  0  0  0  0  0  0
    1.0157    0.0148   -2.4466 O   0  0  0  0  0  0  0  0  0  0  0  0
    0.8470   -2.0293   -1.2225 C   0  0  0  0  0  0  0  0  0  0  0  0
   -0.4203   -1.9166   -0.3228 C   0  0  0  0  0  0  0  0  0  0  0  0
   -0.9831   -3.3493   -0.1522 C   0  0  0  0  0  0  0  0  0  0  0  0
   -0.0280   -1.3674    1.0704 C   0  0  0  0  0  0  0  0  0  0  0  0
   -1.4018   -1.0235   -0.9979 N   0  0  0  0  0  0  0  0  0  0  0  0
   -2.7673   -1.0385   -0.4414 C   0  0  0  0  0  0  0  0  0  0  0  0
   -3.6576   -0.0696   -1.1788 C   0  0  0  0  0  0  0  0  0  0  0  0
   -3.3373    0.2986   -2.3425 O   0  0  0  0  0  0  0  0  0  0  0  0
   -4.9018    0.3876   -0.6116 N   0  0  0  0  0  0  0  0  0  0  0  0
   -5.7681    1.3311   -1.3003 C   0  0  0  0  0  0  0  0  0  0  0  0
   -7.0090    1.4682   -0.4284 C   0  0  0  0  0  0  0  0  0  0  0  0
   -6.6116    0.9331    0.9441 C   0  0  0  0  0  0  0  0  0  0  0  0
   -5.4146    0.0131    0.7005 C   0  0  1  0  0  0  0  0  0  0  0  0
   -5.8264   -1.4004    0.6976 C   0  0  0  0  0  0  0  0  0  0  0  0
   -6.1490   -2.5118    0.6949 N   0  0  0  0  0  0  0  0  0  0  0  0
    3.5035   -1.0690    0.0506 C   0  0  0  0  0  0  0  0  0  0  0  0
    8.1953    2.9489    0.4532 H   0  0  0  0  0  0  0  0  0  0  0  0
    6.9149    3.9975    1.1826 H   0  0  0  0  0  0  0  0  0  0  0  0
    7.8627    2.8857    2.2299 H   0  0  0  0  0  0  0  0  0  0  0  0
    7.4459    0.4317    2.1749 H   0  0  0  0  0  0  0  0  0  0  0  0
    5.8156   -1.3865    1.7174 H   0  0  0  0  0  0  0  0  0  0  0  0
    5.1368    3.1132   -0.3248 H   0  0  0  0  0  0  0  0  0  0  0  0
    3.4457    1.3347   -2.0045 H   0  0  0  0  0  0  0  0  0  0  0  0
    2.4464    1.8609   -0.5583 H   0  0  0  0  0  0  0  0  0  0  0  0
    0.5610   -2.4976   -2.1904 H   0  0  0  0  0  0  0  0  0  0  0  0
    1.5848   -2.7170   -0.7582 H   0  0  0  0  0  0  0  0  0  0  0  0
   -0.1879   -4.0479    0.1875 H   0  0  0  0  0  0  0  0  0  0  0  0
   -1.3889   -3.7240   -1.1165 H   0  0  0  0  0  0  0  0  0  0  0  0
   -1.7873   -3.3820    0.6133 H   0  0  0  0  0  0  0  0  0  0  0  0
    0.7483   -2.0112    1.5348 H   0  0  0  0  0  0  0  0  0  0  0  0
   -0.8953   -1.3579    1.7613 H   0  0  0  0  0  0  0  0  0  0  0  0
    0.3669   -0.3322    0.9951 H   0  0  0  0  0  0  0  0  0  0  0  0
   -1.0543   -0.0373   -0.9324 H   0  0  0  0  0  0  0  0  0  0  0  0
   -2.7448   -0.7704    0.6328 H   0  0  0  0  0  0  0  0  0  0  0  0
   -3.2232   -2.0418   -0.5639 H   0  0  0  0  0  0  0  0  0  0  0  0
   -6.0400    0.9458   -2.3071 H   0  0  0  0  0  0  0  0  0  0  0  0
   -5.2502    2.3100   -1.3968 H   0  0  0  0  0  0  0  0  0  0  0  0
   -7.8286    0.8422   -0.8452 H   0  0  0  0  0  0  0  0  0  0  0  0
   -7.3495    2.5248   -0.3691 H   0  0  0  0  0  0  0  0  0  0  0  0
   -7.4658    0.4224    1.4427 H   0  0  0  0  0  0  0  0  0  0  0  0
   -6.2925    1.7852    1.5843 H   0  0  0  0  0  0  0  0  0  0  0  0
   -4.6487    0.1813    1.4871 H   0  0  0  0  0  0  0  0  0  0  0  0
    2.9423   -1.4164    0.9409 H   0  0  0  0  0  0  0  0  0  0  0  0
    3.9246   -1.9215   -0.5238 H   0  0  0  0  0  0  0  0  0  0  0  0
  1  2  1  0
  2  3  2  0
  3  4  1  0
  4  5  2  0
  5  6  1  0
  6  7  2  0
  6  8  1  0
  8  9  1  0
  9 10  1  0
 10 11  2  0
 10 12  1  0
 12 13  1  0
 13 14  1  0
 13 15  1  0
 13 16  1  0
 16 17  1  0
 17 18  1  0
 18 19  2  0
 18 20  1  0
 20 21  1  0
 21 22  1  0
 22 23  1  0
 23 24  1  0
 24 25  1  0
 25 26  3  0
  9 27  1  0
  7  2  1  0
 24 20  1  0
 27  5  1  0
  1 28  1  0
  1 29  1  0
  1 30  1  0
  3 31  1  0
  4 32  1  0
  7 33  1  0
  8 34  1  0
  8 35  1  0
 12 36  1  0
 12 37  1  0
 14 38  1  0
 14 39  1  0
 14 40  1  0
 15 41  1  0
 15 42  1  0
 15 43  1  0
 16 44  1  0
 17 45  1  0
 17 46  1  0
 21 47  1  0
 21 48  1  0
 22 49  1  0
 22 50  1  0
 23 51  1  0
 23 52  1  0
 24 53  1  1
 27 54  1  0
 27 55  1  0
M  END
$$$$
