
     RDKit          3D

 52 55  0  0  0  0  0  0  0  0999 V2000
   -2.4065   -3.3658   -0.3419 C   0  0  0  0  0  0  0  0  0  0  0  0
   -2.5067   -2.0001    0.1811 N   0  0  0  0  0  0  0  0  0  0  0  0
   -1.5667   -1.5475    1.1776 C   0  0  0  0  0  0  0  0  0  0  0  0
   -0.6233   -2.2963    1.5519 O   0  0  0  0  0  0  0  0  0  0  0  0
   -1.6782   -0.1684    1.7556 C   0  0  0  0  0  0  0  0  0  0  0  0
   -1.3807    0.8267    0.7129 N   0  0  0  0  0  0  0  0  0  0  0  0
   -0.2264    1.6926    0.8163 C   0  0  0  0  0  0  0  0  0  0  0  0
   -0.2200    2.7863    0.1875 O   0  0  0  0  0  0  0  0  0  0  0  0
    0.9543    1.3355    1.6965 C   0  0  0  0  0  0  0  0  0  0  0  0
    2.2918    2.0217    1.3082 C   0  0  2  0  0  0  0  0  0  0  0  0
    2.1573    3.4780    1.4620 N   0  0  0  0  0  0  0  0  0  0  0  0
    2.7890    1.6693   -0.1326 C   0  0  1  0  0  0  0  0  0  0  0  0
    4.2689    2.0951   -0.3479 C   0  0  0  0  0  0  0  0  0  0  0  0
    5.1289    0.8304   -0.2005 C   0  0  0  0  0  0  0  0  0  0  0  0
    4.1563   -0.2633   -0.3996 C   0  0  0  0  0  0  0  0  0  0  0  0
    4.4549   -1.6042   -0.6520 C   0  0  0  0  0  0  0  0  0  0  0  0
    3.4037   -2.4883   -0.9338 C   0  0  0  0  0  0  0  0  0  0  0  0
    3.6694   -3.7929   -1.1904 F   0  0  0  0  0  0  0  0  0  0  0  0
    2.0803   -2.0161   -0.9825 C   0  0  0  0  0  0  0  0  0  0  0  0
    1.0702   -2.8626   -1.2979 F   0  0  0  0  0  0  0  0  0  0  0  0
    1.8042   -0.6648   -0.7253 C   0  0  0  0  0  0  0  0  0  0  0  0
    2.8594    0.1943   -0.3920 C   0  0  0  0  0  0  0  0  0  0  0  0
   -2.1444    0.8361   -0.5519 C   0  0  0  0  0  0  0  0  0  0  0  0
   -3.5131    0.1931   -0.4375 C   0  0  0  0  0  0  0  0  0  0  0  0
   -4.6619    0.9672   -0.6820 C   0  0  0  0  0  0  0  0  0  0  0  0
   -5.9304    0.3856   -0.6501 C   0  0  0  0  0  0  0  0  0  0  0  0
   -6.0697   -0.9742   -0.3767 C   0  0  0  0  0  0  0  0  0  0  0  0
   -4.9419   -1.7569   -0.1257 C   0  0  0  0  0  0  0  0  0  0  0  0
   -3.6551   -1.1883   -0.1493 C   0  0  0  0  0  0  0  0  0  0  0  0
   -2.8338   -4.0800    0.3929 H   0  0  0  0  0  0  0  0  0  0  0  0
   -1.3466   -3.6314   -0.5349 H   0  0  0  0  0  0  0  0  0  0  0  0
   -2.9547   -3.4568   -1.3041 H   0  0  0  0  0  0  0  0  0  0  0  0
   -2.7077   -0.0079    2.1404 H   0  0  0  0  0  0  0  0  0  0  0  0
   -1.0158   -0.0651    2.6388 H   0  0  0  0  0  0  0  0  0  0  0  0
    1.1030    0.2364    1.7028 H   0  0  0  0  0  0  0  0  0  0  0  0
    0.7005    1.6166    2.7411 H   0  0  0  0  0  0  0  0  0  0  0  0
    3.0553    1.6592    2.0353 H   0  0  0  0  0  0  0  0  0  0  0  0
    3.1023    3.9197    1.4794 H   0  0  0  0  0  0  0  0  0  0  0  0
    1.7512    3.6854    2.4035 H   0  0  0  0  0  0  0  0  0  0  0  0
    2.1403    2.1551   -0.8940 H   0  0  0  0  0  0  0  0  0  0  0  0
    4.3822    2.4886   -1.3827 H   0  0  0  0  0  0  0  0  0  0  0  0
    4.6298    2.8764    0.3494 H   0  0  0  0  0  0  0  0  0  0  0  0
    5.9334    0.7988   -0.9667 H   0  0  0  0  0  0  0  0  0  0  0  0
    5.5605    0.7643    0.8214 H   0  0  0  0  0  0  0  0  0  0  0  0
    5.4805   -1.9504   -0.6534 H   0  0  0  0  0  0  0  0  0  0  0  0
    0.7915   -0.2983   -0.7969 H   0  0  0  0  0  0  0  0  0  0  0  0
   -2.2582    1.8823   -0.9101 H   0  0  0  0  0  0  0  0  0  0  0  0
   -1.5623    0.2975   -1.3298 H   0  0  0  0  0  0  0  0  0  0  0  0
   -4.5779    2.0230   -0.9076 H   0  0  0  0  0  0  0  0  0  0  0  0
   -6.8073    0.9904   -0.8417 H   0  0  0  0  0  0  0  0  0  0  0  0
   -7.0549   -1.4216   -0.3504 H   0  0  0  0  0  0  0  0  0  0  0  0
   -5.0745   -2.8046    0.1112 H   0  0  0  0  0  0  0  0  0  0  0  0
  1  2  1  0
  2  3  1  0
  3  4  2  0
  3  5  1  0
  5  6  1  0
  6  7  1  0
  7  8  2  0
  7  9  1  0
  9 10  1  0
 10 11  1  0
 10 12  1  0
 12 13  1  0
 13 14  1  0
 14 15  1  0
 15 16  2  0
 16 17  1  0
 17 18  1  0
 17 19  2  0
 19 20  1  0
 19 21  1  0
 21 22  2  0
  6 23  1  0
 23 24  1  0
 24 25  2  0
 25 26  1  0
 26 27  2  0
 27 28  1  0
 28 29  2  0
 29  2  1  0
 22 12  1  0
 29 24  1  0
 22 15  1  0
  1 30  1  0
  1 31  1  0
  1 32  1  0
  5 33  1  0
  5 34  1  0
  9 35  1  0
  9 36  1  0
 10 37  1  1
 11 38  1  0
 11 39  1  0
 12 40  1  6
 13 41  1  0
 13 42  1  0
 14 43  1  0
 14 44  1  0
 16 45  1  0
 21 46  1  0
 23 47  1  0
 23 48  1  0
 25 49  1  0
 26 50  1  0
 27 51  1  0
 28 52  1  0
M  END
$$$$
