
     RDKit          3D

 45 48  0  0  0  0  0  0  0  0999 V2000
    1.8827   -0.7433   -2.5202 O   0  0  0  0  0  0  0  0  0  0  0  0
    2.0004   -0.8397   -1.2680 C   0  0  0  0  0  0  0  0  0  0  0  0
    1.1251   -1.8159   -0.5291 C   0  0  0  0  0  0  0  0  0  0  0  0
   -0.2401   -1.8021   -1.0852 N   0  0  0  0  0  0  0  0  0  0  0  0
   -1.2122   -0.9006   -0.4165 C   0  0  0  0  0  0  0  0  0  0  0  0
   -2.4817   -0.8386   -1.3126 C   0  0  0  0  0  0  0  0  0  0  0  0
   -3.5526    0.0769   -0.6826 C   0  0  1  0  0  0  0  0  0  0  0  0
   -3.9449   -0.4731    0.7047 C   0  0  0  0  0  0  0  0  0  0  0  0
   -2.6982   -0.5156    1.6131 C   0  0  1  0  0  0  0  0  0  0  0  0
   -1.6319   -1.4414    0.9853 C   0  0  0  0  0  0  0  0  0  0  0  0
   -2.1216    0.9098    1.7626 C   0  0  0  0  0  0  0  0  0  0  0  0
   -1.7345    1.4632    0.3731 C   0  0  1  0  0  0  0  0  0  0  0  0
   -0.6628    0.5511   -0.2633 C   0  0  0  0  0  0  0  0  0  0  0  0
   -2.9829    1.5024   -0.5320 C   0  0  0  0  0  0  0  0  0  0  0  0
    2.9918   -0.0490   -0.5875 N   0  0  0  0  0  0  0  0  0  0  0  0
    3.7786    0.9699   -1.2599 C   0  0  0  0  0  0  0  0  0  0  0  0
    4.5967    1.6447   -0.1674 C   0  0  0  0  0  0  0  0  0  0  0  0
    4.5632    0.6934    1.0255 C   0  0  0  0  0  0  0  0  0  0  0  0
    3.3437   -0.1938    0.8154 C   0  0  0  0  0  0  0  0  0  0  0  0
    1.1266   -1.6224    0.5597 H   0  0  0  0  0  0  0  0  0  0  0  0
    1.5702   -2.8253   -0.6689 H   0  0  0  0  0  0  0  0  0  0  0  0
   -0.6149   -2.7802   -1.0592 H   0  0  0  0  0  0  0  0  0  0  0  0
   -2.9043   -1.8589   -1.4497 H   0  0  0  0  0  0  0  0  0  0  0  0
   -2.2147   -0.4584   -2.3238 H   0  0  0  0  0  0  0  0  0  0  0  0
   -4.4503    0.1041   -1.3379 H   0  0  0  0  0  0  0  0  0  0  0  0
   -4.3757   -1.4933    0.6017 H   0  0  0  0  0  0  0  0  0  0  0  0
   -4.7268    0.1722    1.1622 H   0  0  0  0  0  0  0  0  0  0  0  0
   -2.9841   -0.9058    2.6141 H   0  0  0  0  0  0  0  0  0  0  0  0
   -0.7643   -1.4952    1.6746 H   0  0  0  0  0  0  0  0  0  0  0  0
   -2.0419   -2.4714    0.8934 H   0  0  0  0  0  0  0  0  0  0  0  0
   -1.2295    0.8914    2.4267 H   0  0  0  0  0  0  0  0  0  0  0  0
   -2.8748    1.5753    2.2390 H   0  0  0  0  0  0  0  0  0  0  0  0
   -1.3267    2.4914    0.4847 H   0  0  0  0  0  0  0  0  0  0  0  0
   -0.3657    0.9558   -1.2560 H   0  0  0  0  0  0  0  0  0  0  0  0
    0.2356    0.5704    0.3883 H   0  0  0  0  0  0  0  0  0  0  0  0
   -2.7162    1.9134   -1.5305 H   0  0  0  0  0  0  0  0  0  0  0  0
   -3.7515    2.1746   -0.0910 H   0  0  0  0  0  0  0  0  0  0  0  0
    3.1128    1.7059   -1.7611 H   0  0  0  0  0  0  0  0  0  0  0  0
    4.4469    0.4915   -2.0085 H   0  0  0  0  0  0  0  0  0  0  0  0
    5.6391    1.8381   -0.5020 H   0  0  0  0  0  0  0  0  0  0  0  0
    4.1186    2.6087    0.1147 H   0  0  0  0  0  0  0  0  0  0  0  0
    5.4835    0.0685    1.0262 H   0  0  0  0  0  0  0  0  0  0  0  0
    4.4994    1.2502    1.9856 H   0  0  0  0  0  0  0  0  0  0  0  0
    2.5014    0.1540    1.4516 H   0  0  0  0  0  0  0  0  0  0  0  0
    3.5885   -1.2529    1.0486 H   0  0  0  0  0  0  0  0  0  0  0  0
  1  2  2  0
  2  3  1  0
  3  4  1  0
  4  5  1  0
  5  6  1  0
  6  7  1  0
  7  8  1  0
  8  9  1  0
  9 10  1  0
  9 11  1  0
 11 12  1  0
 12 13  1  0
 12 14  1  0
  2 15  1  0
 15 16  1  0
 16 17  1  0
 17 18  1  0
 18 19  1  0
 10  5  1  0
 19 15  1  0
 13  5  1  0
 14  7  1  0
  3 20  1  0
  3 21  1  0
  4 22  1  0
  6 23  1  0
  6 24  1  0
  7 25  1  6
  8 26  1  0
  8 27  1  0
  9 28  1  1
 10 29  1  0
 10 30  1  0
 11 31  1  0
 11 32  1  0
 12 33  1  1
 13 34  1  0
 13 35  1  0
 14 36  1  0
 14 37  1  0
 16 38  1  0
 16 39  1  0
 17 40  1  0
 17 41  1  0
 18 42  1  0
 18 43  1  0
 19 44  1  0
 19 45  1  0
M  END
$$$$
