
     RDKit          3D

 83 84  0  0  0  0  0  0  0  0999 V2000
   -4.1700    3.1823    0.4666 C   0  0  0  0  0  0  0  0  0  0  0  0
   -3.1000    2.1542    0.8587 C   0  0  1  0  0  0  0  0  0  0  0  0
   -3.5466    1.3143    2.0635 C   0  0  0  0  0  0  0  0  0  0  0  0
   -4.0591   -0.0074    1.4909 C   0  0  1  0  0  0  0  0  0  0  0  0
   -5.5287   -0.0156    1.4107 C   0  0  0  0  0  0  0  0  0  0  0  0
   -6.6841   -0.0226    1.3465 N   0  0  0  0  0  0  0  0  0  0  0  0
   -3.4890   -0.0935    0.1533 N   0  0  0  0  0  0  0  0  0  0  0  0
   -3.4841   -1.2732   -0.6753 C   0  0  0  0  0  0  0  0  0  0  0  0
   -3.1440   -1.1704   -1.8863 O   0  0  0  0  0  0  0  0  0  0  0  0
   -3.8079   -2.6469   -0.1191 C   0  0  1  0  0  0  0  0  0  0  0  0
   -4.2197   -3.5495   -1.1984 N   0  0  0  0  0  0  0  0  0  0  0  0
   -2.6065   -3.2445    0.6469 C   0  0  0  0  0  0  0  0  0  0  0  0
   -1.3365   -3.2524   -0.1718 C   0  0  0  0  0  0  0  0  0  0  0  0
   -1.1773   -4.1646   -1.0275 O   0  0  0  0  0  0  0  0  0  0  0  0
   -0.3482   -2.2070   -0.0545 N   0  0  0  0  0  0  0  0  0  0  0  0
    0.1786   -1.6085   -1.2905 C   0  0  0  0  0  0  0  0  0  0  0  0
    1.5582   -0.9973   -1.0591 C   0  0  0  0  0  0  0  0  0  0  0  0
    1.5058   -0.0895    0.1037 N   0  0  0  0  0  0  0  0  0  0  0  0
    2.7000    0.7874    0.2532 C   0  0  0  0  0  0  0  0  0  0  0  0
    2.6821    1.9536   -0.7344 C   0  0  0  0  0  0  0  0  0  0  0  0
    3.8149    2.7847   -0.8580 C   0  0  0  0  0  0  0  0  0  0  0  0
    3.7990    3.8919   -1.7108 C   0  0  0  0  0  0  0  0  0  0  0  0
    2.6443    4.2069   -2.4287 C   0  0  0  0  0  0  0  0  0  0  0  0
    2.6298    5.2839   -3.2521 F   0  0  0  0  0  0  0  0  0  0  0  0
    1.4984    3.4233   -2.2831 C   0  0  0  0  0  0  0  0  0  0  0  0
    1.5086    2.3144   -1.4320 C   0  0  0  0  0  0  0  0  0  0  0  0
    4.0102   -0.0013    0.2355 C   0  0  0  0  0  0  0  0  0  0  0  0
    4.6591   -0.3290   -0.9728 C   0  0  0  0  0  0  0  0  0  0  0  0
    5.8441   -1.0700   -0.9628 C   0  0  0  0  0  0  0  0  0  0  0  0
    6.3939   -1.4966    0.2481 C   0  0  0  0  0  0  0  0  0  0  0  0
    7.5429   -2.2163    0.2552 F   0  0  0  0  0  0  0  0  0  0  0  0
    5.7585   -1.1829    1.4518 C   0  0  0  0  0  0  0  0  0  0  0  0
    4.5735   -0.4414    1.4472 C   0  0  0  0  0  0  0  0  0  0  0  0
    1.2155   -0.8629    1.3237 C   0  0  0  0  0  0  0  0  0  0  0  0
   -0.1749   -1.4927    1.2206 C   0  0  0  0  0  0  0  0  0  0  0  0
   -2.8507    1.1451   -0.2671 C   0  0  0  0  0  0  0  0  0  0  0  0
    0.8874    1.1800   -0.8823 O   0  0  0  0  0  0  0  0  0  0  0  0
    0.4873    0.1774   -0.2323 C   0  0  0  0  0  0  0  0  0  0  0  0
    1.3431   -0.9000   -0.0234 O   0  0  0  0  0  0  0  0  0  0  0  0
   -0.9218    0.1202    0.2619 C   0  0  0  0  0  0  0  0  0  0  0  0
   -1.0151   -0.7611    1.3236 F   0  0  0  0  0  0  0  0  0  0  0  0
   -1.7487   -0.3086   -0.7590 F   0  0  0  0  0  0  0  0  0  0  0  0
   -1.3270    1.3744    0.6813 F   0  0  0  0  0  0  0  0  0  0  0  0
    0.8839    1.1730   -0.8951 O   0  0  0  0  0  0  0  0  0  0  0  0
    0.4856    0.1741   -0.2381 C   0  0  0  0  0  0  0  0  0  0  0  0
    1.3378   -0.9074   -0.0360 O   0  0  0  0  0  0  0  0  0  0  0  0
   -0.9182    0.1259    0.2718 C   0  0  0  0  0  0  0  0  0  0  0  0
   -1.0045   -0.7522    1.3367 F   0  0  0  0  0  0  0  0  0  0  0  0
   -1.7587   -0.3010   -0.7388 F   0  0  0  0  0  0  0  0  0  0  0  0
   -1.3119    1.3834    0.6924 F   0  0  0  0  0  0  0  0  0  0  0  0
   -4.3472    3.8865    1.3071 H   0  0  0  0  0  0  0  0  0  0  0  0
   -5.1268    2.6792    0.2096 H   0  0  0  0  0  0  0  0  0  0  0  0
   -3.8265    3.7709   -0.4106 H   0  0  0  0  0  0  0  0  0  0  0  0
   -2.1598    2.6987    1.1002 H   0  0  0  0  0  0  0  0  0  0  0  0
   -2.6562    1.1050    2.6974 H   0  0  0  0  0  0  0  0  0  0  0  0
   -4.2965    1.8339    2.7024 H   0  0  0  0  0  0  0  0  0  0  0  0
   -3.7175   -0.8477    2.1284 H   0  0  0  0  0  0  0  0  0  0  0  0
   -4.6566   -2.5553    0.5937 H   0  0  0  0  0  0  0  0  0  0  0  0
   -5.0785   -3.1542   -1.6472 H   0  0  0  0  0  0  0  0  0  0  0  0
   -4.5133   -4.4604   -0.7760 H   0  0  0  0  0  0  0  0  0  0  0  0
   -2.4665   -2.6921    1.5944 H   0  0  0  0  0  0  0  0  0  0  0  0
   -2.8442   -4.2883    0.9463 H   0  0  0  0  0  0  0  0  0  0  0  0
    0.2610   -2.3708   -2.0952 H   0  0  0  0  0  0  0  0  0  0  0  0
   -0.5155   -0.8142   -1.6362 H   0  0  0  0  0  0  0  0  0  0  0  0
    2.2940   -1.8168   -0.8966 H   0  0  0  0  0  0  0  0  0  0  0  0
    1.8490   -0.4430   -1.9768 H   0  0  0  0  0  0  0  0  0  0  0  0
    2.6328    1.2965    1.2414 H   0  0  0  0  0  0  0  0  0  0  0  0
    4.7143    2.5774   -0.2918 H   0  0  0  0  0  0  0  0  0  0  0  0
    4.6816    4.5113   -1.8066 H   0  0  0  0  0  0  0  0  0  0  0  0
    0.5957    3.6801   -2.8225 H   0  0  0  0  0  0  0  0  0  0  0  0
    0.5933    1.7488   -1.3218 H   0  0  0  0  0  0  0  0  0  0  0  0
    4.2507   -0.0098   -1.9228 H   0  0  0  0  0  0  0  0  0  0  0  0
    6.3351   -1.3141   -1.8961 H   0  0  0  0  0  0  0  0  0  0  0  0
    6.1826   -1.5155    2.3904 H   0  0  0  0  0  0  0  0  0  0  0  0
    4.0931   -0.2127    2.3904 H   0  0  0  0  0  0  0  0  0  0  0  0
    1.2241   -0.2015    2.2178 H   0  0  0  0  0  0  0  0  0  0  0  0
    1.9752   -1.6621    1.4772 H   0  0  0  0  0  0  0  0  0  0  0  0
   -0.9457   -0.6981    1.3060 H   0  0  0  0  0  0  0  0  0  0  0  0
   -0.2907   -2.1965    2.0731 H   0  0  0  0  0  0  0  0  0  0  0  0
   -1.7594    0.9747   -0.3881 H   0  0  0  0  0  0  0  0  0  0  0  0
   -3.2713    1.4846   -1.2393 H   0  0  0  0  0  0  0  0  0  0  0  0
    2.2949   -0.8823   -0.3698 H   0  0  0  0  0  0  0  0  0  0  0  0
    2.2858   -0.8957   -0.3929 H   0  0  0  0  0  0  0  0  0  0  0  0
  1  2  1  0
  2  3  1  0
  3  4  1  0
  4  5  1  0
  5  6  3  0
  4  7  1  0
  7  8  1  0
  8  9  2  0
  8 10  1  0
 10 11  1  0
 10 12  1  0
 12 13  1  0
 13 14  2  0
 13 15  1  0
 15 16  1  0
 16 17  1  0
 17 18  1  0
 18 19  1  0
 19 20  1  0
 20 21  2  0
 21 22  1  0
 22 23  2  0
 23 24  1  0
 23 25  1  0
 25 26  2  0
 19 27  1  0
 27 28  2  0
 28 29  1  0
 29 30  2  0
 30 31  1  0
 30 32  1  0
 32 33  2  0
 18 34  1  0
 34 35  1  0
  7 36  1  0
 37 38  2  0
 38 39  1  0
 38 40  1  0
 40 41  1  0
 40 42  1  0
 40 43  1  0
 44 45  2  0
 45 46  1  0
 45 47  1  0
 47 48  1  0
 47 49  1  0
 47 50  1  0
 36  2  1  0
 35 15  1  0
 26 20  1  0
 33 27  1  0
  1 51  1  0
  1 52  1  0
  1 53  1  0
  2 54  1  1
  3 55  1  0
  3 56  1  0
  4 57  1  1
 10 58  1  1
 11 59  1  0
 11 60  1  0
 12 61  1  0
 12 62  1  0
 16 63  1  0
 16 64  1  0
 17 65  1  0
 17 66  1  0
 19 67  1  0
 21 68  1  0
 22 69  1  0
 25 70  1  0
 26 71  1  0
 28 72  1  0
 29 73  1  0
 32 74  1  0
 33 75  1  0
 34 76  1  0
 34 77  1  0
 35 78  1  0
 35 79  1  0
 36 80  1  0
 36 81  1  0
 39 82  1  0
 46 83  1  0
M  END
$$$$
