
     RDKit          3D

 58 61  0  0  0  0  0  0  0  0999 V2000
    7.4798   -0.6682   -0.2209 C   0  0  0  0  0  0  0  0  0  0  0  0
    6.5061    0.3383   -0.4790 O   0  0  0  0  0  0  0  0  0  0  0  0
    5.1573    0.2583   -0.0970 C   0  0  0  0  0  0  0  0  0  0  0  0
    4.6422   -0.8509    0.5953 C   0  0  0  0  0  0  0  0  0  0  0  0
    3.2879   -0.9000    0.9490 C   0  0  0  0  0  0  0  0  0  0  0  0
    2.4229    0.1553    0.6210 C   0  0  0  0  0  0  0  0  0  0  0  0
    2.9522    1.2794   -0.0466 C   0  0  0  0  0  0  0  0  0  0  0  0
    4.3101    1.3270   -0.4187 C   0  0  0  0  0  0  0  0  0  0  0  0
    4.8578    2.4241   -1.1036 O   0  0  0  0  0  0  0  0  0  0  0  0
    4.1254    3.5791   -1.5007 C   0  0  0  0  0  0  0  0  0  0  0  0
    0.9843    0.0965    1.1507 C   0  0  0  0  0  0  0  0  0  0  0  0
    0.0341    1.1261    0.4754 C   0  0  0  0  0  0  0  0  0  0  0  0
   -1.4456    0.9014    0.8396 C   0  0  0  0  0  0  0  0  0  0  0  0
   -1.6976    1.3591    2.2102 N   0  0  0  0  0  0  0  0  0  0  0  0
   -1.8845   -0.5835    0.6436 C   0  0  0  0  0  0  0  0  0  0  0  0
   -2.9960   -0.7015   -0.3238 N   0  0  0  0  0  0  0  0  0  0  0  0
   -4.2615   -1.3395    0.0652 C   0  0  0  0  0  0  0  0  0  0  0  0
   -5.4722   -0.4420   -0.2640 C   0  0  0  0  0  0  0  0  0  0  0  0
   -5.2940    0.4391   -1.5354 C   0  0  0  0  0  0  0  0  0  0  0  0
   -6.6145    0.5782   -2.3010 C   0  0  0  0  0  0  0  0  0  0  0  0
   -4.1799   -0.0732   -2.4661 C   0  0  0  0  0  0  0  0  0  0  0  0
   -2.9169   -0.2029   -1.6741 C   0  0  0  0  0  0  0  0  0  0  0  0
   -1.8165    0.1345   -2.1864 O   0  0  0  0  0  0  0  0  0  0  0  0
   -0.7141   -1.4970    0.2474 C   0  0  0  0  0  0  0  0  0  0  0  0
    0.4117   -1.2933    1.1781 N   0  0  0  0  0  0  0  0  0  0  0  0
    1.3749   -2.4143    1.0637 C   0  0  0  0  0  0  0  0  0  0  0  0
    2.7287   -2.0787    1.6797 C   0  0  0  0  0  0  0  0  0  0  0  0
    8.4559   -0.3426   -0.6349 H   0  0  0  0  0  0  0  0  0  0  0  0
    7.1851   -1.6196   -0.7120 H   0  0  0  0  0  0  0  0  0  0  0  0
    7.5910   -0.8202    0.8735 H   0  0  0  0  0  0  0  0  0  0  0  0
    5.2855   -1.6795    0.8594 H   0  0  0  0  0  0  0  0  0  0  0  0
    2.3206    2.1224   -0.2741 H   0  0  0  0  0  0  0  0  0  0  0  0
    3.3053    3.2924   -2.1924 H   0  0  0  0  0  0  0  0  0  0  0  0
    3.7122    4.0949   -0.6083 H   0  0  0  0  0  0  0  0  0  0  0  0
    4.8074    4.2764   -2.0288 H   0  0  0  0  0  0  0  0  0  0  0  0
    1.0625    0.4161    2.2124 H   0  0  0  0  0  0  0  0  0  0  0  0
    0.3160    2.1585    0.7786 H   0  0  0  0  0  0  0  0  0  0  0  0
    0.1435    1.0601   -0.6290 H   0  0  0  0  0  0  0  0  0  0  0  0
   -2.0397    1.5589    0.1667 H   0  0  0  0  0  0  0  0  0  0  0  0
   -1.2332    0.7142    2.8903 H   0  0  0  0  0  0  0  0  0  0  0  0
   -2.7271    1.3140    2.3912 H   0  0  0  0  0  0  0  0  0  0  0  0
   -2.2255   -0.9714    1.6295 H   0  0  0  0  0  0  0  0  0  0  0  0
   -4.3594   -2.2944   -0.4961 H   0  0  0  0  0  0  0  0  0  0  0  0
   -4.2815   -1.5953    1.1462 H   0  0  0  0  0  0  0  0  0  0  0  0
   -5.6655    0.2271    0.6032 H   0  0  0  0  0  0  0  0  0  0  0  0
   -6.3634   -1.1007   -0.3624 H   0  0  0  0  0  0  0  0  0  0  0  0
   -5.0000    1.4605   -1.2009 H   0  0  0  0  0  0  0  0  0  0  0  0
   -6.9473   -0.4087   -2.6884 H   0  0  0  0  0  0  0  0  0  0  0  0
   -6.4902    1.2757   -3.1568 H   0  0  0  0  0  0  0  0  0  0  0  0
   -7.4015    0.9865   -1.6316 H   0  0  0  0  0  0  0  0  0  0  0  0
   -4.0289    0.6406   -3.3057 H   0  0  0  0  0  0  0  0  0  0  0  0
   -4.4505   -1.0665   -2.8855 H   0  0  0  0  0  0  0  0  0  0  0  0
   -1.0727   -2.5503    0.3000 H   0  0  0  0  0  0  0  0  0  0  0  0
   -0.3791   -1.3126   -0.7953 H   0  0  0  0  0  0  0  0  0  0  0  0
    0.9592   -3.3015    1.5885 H   0  0  0  0  0  0  0  0  0  0  0  0
    1.5322   -2.6941   -0.0044 H   0  0  0  0  0  0  0  0  0  0  0  0
    2.6088   -1.8302    2.7564 H   0  0  0  0  0  0  0  0  0  0  0  0
    3.3985   -2.9619    1.5901 H   0  0  0  0  0  0  0  0  0  0  0  0
  1  2  1  0
  2  3  1  0
  3  4  2  0
  4  5  1  0
  5  6  2  0
  6  7  1  0
  7  8  2  0
  8  9  1  0
  9 10  1  0
  6 11  1  0
 11 12  1  0
 12 13  1  0
 13 14  1  0
 13 15  1  0
 15 16  1  0
 16 17  1  0
 17 18  1  0
 18 19  1  0
 19 20  1  0
 19 21  1  0
 21 22  1  0
 22 23  2  0
 15 24  1  0
 24 25  1  0
 25 26  1  0
 26 27  1  0
  8  3  1  0
 25 11  1  0
 27  5  1  0
 22 16  1  0
  1 28  1  0
  1 29  1  0
  1 30  1  0
  4 31  1  0
  7 32  1  0
 10 33  1  0
 10 34  1  0
 10 35  1  0
 11 36  1  0
 12 37  1  0
 12 38  1  0
 13 39  1  0
 14 40  1  0
 14 41  1  0
 15 42  1  0
 17 43  1  0
 17 44  1  0
 18 45  1  0
 18 46  1  0
 19 47  1  0
 20 48  1  0
 20 49  1  0
 20 50  1  0
 21 51  1  0
 21 52  1  0
 24 53  1  0
 24 54  1  0
 26 55  1  0
 26 56  1  0
 27 57  1  0
 27 58  1  0
M  END
$$$$
