
     RDKit          3D

 45 46  0  0  0  0  0  0  0  0999 V2000
    0.6878    0.0000    0.0000 Cl  0  0  0  0  0  0  0  0  0  0  0  0
    2.0594   -1.9436    0.4813 N   0  0  0  0  0  0  0  0  0  0  0  0
    1.4047   -0.6935    0.8830 C   0  0  1  0  0  0  0  0  0  0  0  0
    0.5073   -0.9024    2.1240 C   0  0  0  0  0  0  0  0  0  0  0  0
   -0.6686   -1.7921    1.8131 C   0  0  0  0  0  0  0  0  0  0  0  0
   -0.6258   -2.9916    2.2017 O   0  0  0  0  0  0  0  0  0  0  0  0
   -1.8053   -1.3203    1.0518 N   0  0  0  0  0  0  0  0  0  0  0  0
   -2.7978   -2.3059    0.5703 C   0  0  0  0  0  0  0  0  0  0  0  0
   -3.4012   -1.8805   -0.7744 C   0  0  0  0  0  0  0  0  0  0  0  0
   -3.8016   -0.4854   -0.7035 N   0  0  0  0  0  0  0  0  0  0  0  0
   -4.7151    0.1071   -1.4546 N   0  0  0  0  0  0  0  0  0  0  0  0
   -4.7646    1.4035   -1.1695 N   0  0  0  0  0  0  0  0  0  0  0  0
   -3.8281    1.6355   -0.2225 C   0  0  0  0  0  0  0  0  0  0  0  0
   -3.5859    2.9568    0.4322 C   0  0  0  0  0  0  0  0  0  0  0  0
   -4.3828    3.0664    1.5558 F   0  0  0  0  0  0  0  0  0  0  0  0
   -3.8889    3.9812   -0.4458 F   0  0  0  0  0  0  0  0  0  0  0  0
   -3.2243    0.4332    0.0734 C   0  0  0  0  0  0  0  0  0  0  0  0
   -2.1222    0.1250    1.0373 C   0  0  0  0  0  0  0  0  0  0  0  0
    2.4658    0.3856    1.1663 C   0  0  0  0  0  0  0  0  0  0  0  0
    3.2653    0.7098   -0.0720 C   0  0  0  0  0  0  0  0  0  0  0  0
    2.7459    1.6055   -1.0223 C   0  0  0  0  0  0  0  0  0  0  0  0
    3.4620    1.8933   -2.1883 C   0  0  0  0  0  0  0  0  0  0  0  0
    2.9528    2.7616   -3.0969 F   0  0  0  0  0  0  0  0  0  0  0  0
    4.6990    1.2838   -2.4182 C   0  0  0  0  0  0  0  0  0  0  0  0
    5.3940    1.5609   -3.5492 F   0  0  0  0  0  0  0  0  0  0  0  0
    5.2187    0.3837   -1.4839 C   0  0  0  0  0  0  0  0  0  0  0  0
    4.5067    0.0917   -0.3157 C   0  0  0  0  0  0  0  0  0  0  0  0
    5.0265   -0.7937    0.5719 F   0  0  0  0  0  0  0  0  0  0  0  0
   -0.6878    0.0000    0.0000 H   0  0  0  0  0  0  0  0  0  0  0  0
    1.3346   -2.6163    0.1415 H   0  0  0  0  0  0  0  0  0  0  0  0
    2.5323   -2.3748    1.3090 H   0  0  0  0  0  0  0  0  0  0  0  0
    0.7725   -0.3384    0.0386 H   0  0  0  0  0  0  0  0  0  0  0  0
    0.1401    0.0729    2.5068 H   0  0  0  0  0  0  0  0  0  0  0  0
    1.1066   -1.3510    2.9469 H   0  0  0  0  0  0  0  0  0  0  0  0
   -3.6084   -2.3996    1.3251 H   0  0  0  0  0  0  0  0  0  0  0  0
   -2.3334   -3.3066    0.4338 H   0  0  0  0  0  0  0  0  0  0  0  0
   -2.6434   -2.0007   -1.5782 H   0  0  0  0  0  0  0  0  0  0  0  0
   -4.2815   -2.5164   -1.0101 H   0  0  0  0  0  0  0  0  0  0  0  0
   -2.5201    3.0442    0.7305 H   0  0  0  0  0  0  0  0  0  0  0  0
   -1.2357    0.7083    0.7153 H   0  0  0  0  0  0  0  0  0  0  0  0
   -2.4211    0.4502    2.0564 H   0  0  0  0  0  0  0  0  0  0  0  0
    1.9663    1.3142    1.5213 H   0  0  0  0  0  0  0  0  0  0  0  0
    3.1365    0.0516    1.9881 H   0  0  0  0  0  0  0  0  0  0  0  0
    1.7848    2.0779   -0.8593 H   0  0  0  0  0  0  0  0  0  0  0  0
    6.1741   -0.0913   -1.6665 H   0  0  0  0  0  0  0  0  0  0  0  0
  2  3  1  0
  3  4  1  0
  4  5  1  0
  5  6  2  0
  5  7  1  0
  7  8  1  0
  8  9  1  0
  9 10  1  0
 10 11  1  0
 11 12  2  0
 12 13  1  0
 13 14  1  0
 14 15  1  0
 14 16  1  0
 13 17  2  0
 17 18  1  0
  3 19  1  0
 19 20  1  0
 20 21  2  0
 21 22  1  0
 22 23  1  0
 22 24  2  0
 24 25  1  0
 24 26  1  0
 26 27  2  0
 27 28  1  0
 18  7  1  0
 27 20  1  0
 17 10  1  0
  1 29  1  0
  2 30  1  0
  2 31  1  0
  3 32  1  6
  4 33  1  0
  4 34  1  0
  8 35  1  0
  8 36  1  0
  9 37  1  0
  9 38  1  0
 14 39  1  0
 18 40  1  0
 18 41  1  0
 19 42  1  0
 19 43  1  0
 21 44  1  0
 26 45  1  0
M  END
$$$$
