
     RDKit          3D

 45 47  0  0  0  0  0  0  0  0999 V2000
    2.9621    0.2517   -1.7117 C   0  0  0  0  0  0  0  0  0  0  0  0
    3.5344    0.4095   -0.2978 C   0  0  0  0  0  0  0  0  0  0  0  0
    5.0062   -0.0214   -0.2757 C   0  0  0  0  0  0  0  0  0  0  0  0
    2.7232   -0.3972    0.7477 C   0  0  0  0  0  0  0  0  0  0  0  0
    1.3237    0.0937    0.8656 N   0  0  0  0  0  0  0  0  0  0  0  0
    0.2408   -0.6472    0.4199 C   0  0  0  0  0  0  0  0  0  0  0  0
    0.3924   -2.1170    0.0374 C   0  0  0  0  0  0  0  0  0  0  0  0
    0.9746   -2.2470   -1.2930 N   0  0  0  0  0  0  0  0  0  0  0  0
   -1.0470   -0.0478    0.3581 C   0  0  0  0  0  0  0  0  0  0  0  0
   -2.1943   -0.7825   -0.2271 C   0  0  0  0  0  0  0  0  0  0  0  0
   -2.3862   -0.7970   -1.6167 C   0  0  0  0  0  0  0  0  0  0  0  0
   -3.4710   -1.4863   -2.1672 C   0  0  0  0  0  0  0  0  0  0  0  0
   -4.3696   -2.1590   -1.3335 C   0  0  0  0  0  0  0  0  0  0  0  0
   -4.1855   -2.1422    0.0525 C   0  0  0  0  0  0  0  0  0  0  0  0
   -3.1015   -1.4547    0.6067 C   0  0  0  0  0  0  0  0  0  0  0  0
   -1.2332    1.2586    0.8581 C   0  0  0  0  0  0  0  0  0  0  0  0
   -2.4945    1.8986    0.8225 C   0  0  0  0  0  0  0  0  0  0  0  0
   -2.6607    3.1792    1.3542 C   0  0  0  0  0  0  0  0  0  0  0  0
   -4.2344    3.9532    1.3040 Cl  0  0  0  0  0  0  0  0  0  0  0  0
   -1.5778    3.8423    1.9275 C   0  0  0  0  0  0  0  0  0  0  0  0
   -0.3245    3.2324    1.9638 C   0  0  0  0  0  0  0  0  0  0  0  0
   -0.1379    1.9416    1.4256 C   0  0  0  0  0  0  0  0  0  0  0  0
    1.1290    1.3351    1.4276 C   0  0  0  0  0  0  0  0  0  0  0  0
    2.1004    1.9480    1.9568 O   0  0  0  0  0  0  0  0  0  0  0  0
    3.0541   -0.7993   -2.0571 H   0  0  0  0  0  0  0  0  0  0  0  0
    1.8945    0.5557   -1.7376 H   0  0  0  0  0  0  0  0  0  0  0  0
    3.5175    0.9026   -2.4201 H   0  0  0  0  0  0  0  0  0  0  0  0
    3.5052    1.4893   -0.0414 H   0  0  0  0  0  0  0  0  0  0  0  0
    5.4388    0.1452    0.7339 H   0  0  0  0  0  0  0  0  0  0  0  0
    5.1045   -1.0976   -0.5349 H   0  0  0  0  0  0  0  0  0  0  0  0
    5.5932    0.5779   -1.0042 H   0  0  0  0  0  0  0  0  0  0  0  0
    3.2179   -0.3168    1.7412 H   0  0  0  0  0  0  0  0  0  0  0  0
    2.7939   -1.4672    0.4832 H   0  0  0  0  0  0  0  0  0  0  0  0
    1.0214   -2.6422    0.7861 H   0  0  0  0  0  0  0  0  0  0  0  0
   -0.5702   -2.6688    0.0729 H   0  0  0  0  0  0  0  0  0  0  0  0
    1.1262   -3.2648   -1.4783 H   0  0  0  0  0  0  0  0  0  0  0  0
    0.2722   -1.9170   -1.9932 H   0  0  0  0  0  0  0  0  0  0  0  0
   -1.6984   -0.2737   -2.2694 H   0  0  0  0  0  0  0  0  0  0  0  0
   -3.6163   -1.4976   -3.2396 H   0  0  0  0  0  0  0  0  0  0  0  0
   -5.2092   -2.6915   -1.7611 H   0  0  0  0  0  0  0  0  0  0  0  0
   -4.8829   -2.6615    0.6969 H   0  0  0  0  0  0  0  0  0  0  0  0
   -2.9662   -1.4459    1.6813 H   0  0  0  0  0  0  0  0  0  0  0  0
   -3.3593    1.4153    0.3873 H   0  0  0  0  0  0  0  0  0  0  0  0
   -1.7043    4.8346    2.3417 H   0  0  0  0  0  0  0  0  0  0  0  0
    0.4989    3.7787    2.4073 H   0  0  0  0  0  0  0  0  0  0  0  0
  1  2  1  0
  2  3  1  0
  2  4  1  0
  4  5  1  0
  5  6  1  0
  6  7  1  0
  7  8  1  0
  6  9  2  0
  9 10  1  0
 10 11  2  0
 11 12  1  0
 12 13  2  0
 13 14  1  0
 14 15  2  0
  9 16  1  0
 16 17  2  0
 17 18  1  0
 18 19  1  0
 18 20  2  0
 20 21  1  0
 21 22  2  0
 22 23  1  0
 23 24  2  0
 23  5  1  0
 15 10  1  0
 22 16  1  0
  1 25  1  0
  1 26  1  0
  1 27  1  0
  2 28  1  0
  3 29  1  0
  3 30  1  0
  3 31  1  0
  4 32  1  0
  4 33  1  0
  7 34  1  0
  7 35  1  0
  8 36  1  0
  8 37  1  0
 11 38  1  0
 12 39  1  0
 13 40  1  0
 14 41  1  0
 15 42  1  0
 17 43  1  0
 20 44  1  0
 21 45  1  0
M  END
$$$$
