
     RDKit          3D

 42 43  0  0  0  0  0  0  0  0999 V2000
   -4.8149   -3.3914    1.6472 N   0  0  0  0  0  0  0  0  0  0  0  0
   -5.0471   -2.3882    1.1189 C   0  0  0  0  0  0  0  0  0  0  0  0
   -5.3418   -1.1112    0.4470 C   0  0  2  0  0  0  0  0  0  0  0  0
   -6.2850   -1.3170   -0.7405 C   0  0  0  0  0  0  0  0  0  0  0  0
   -5.7260   -0.4518   -1.8664 C   0  0  0  0  0  0  0  0  0  0  0  0
   -4.2591   -0.2244   -1.5281 C   0  0  0  0  0  0  0  0  0  0  0  0
   -4.1289   -0.5295   -0.1120 N   0  0  0  0  0  0  0  0  0  0  0  0
   -2.9947   -0.1373    0.6859 C   0  0  0  0  0  0  0  0  0  0  0  0
   -3.0703   -0.1895    1.9442 O   0  0  0  0  0  0  0  0  0  0  0  0
   -1.7429    0.3961    0.0437 C   0  0  0  0  0  0  0  0  0  0  0  0
   -0.5862    0.1907    0.9265 N   0  0  0  0  0  0  0  0  0  0  0  0
    0.5914    0.9597    0.4942 C   0  0  0  0  0  0  0  0  0  0  0  0
    1.2399    0.3818   -0.7749 C   0  0  0  0  0  0  0  0  0  0  0  0
    2.4799    1.0926   -1.0821 N   0  0  0  0  0  0  0  0  0  0  0  0
    3.7033    0.8639   -0.3663 C   0  0  0  0  0  0  0  0  0  0  0  0
    4.8493    1.6034   -0.6810 C   0  0  0  0  0  0  0  0  0  0  0  0
    6.0332    1.3701    0.0208 C   0  0  0  0  0  0  0  0  0  0  0  0
    6.0795    0.3860    1.0204 C   0  0  0  0  0  0  0  0  0  0  0  0
    7.3366    0.1588    1.8206 C   0  0  0  0  0  0  0  0  0  0  0  0
    7.4048   -1.1518    2.2607 F   0  0  0  0  0  0  0  0  0  0  0  0
    7.3380    1.0026    2.9155 F   0  0  0  0  0  0  0  0  0  0  0  0
    8.4580    0.4162    1.0511 F   0  0  0  0  0  0  0  0  0  0  0  0
    4.9010   -0.3164    1.3199 C   0  0  0  0  0  0  0  0  0  0  0  0
    3.7598   -0.0695    0.6238 N   0  0  0  0  0  0  0  0  0  0  0  0
   -5.7920   -0.4023    1.1756 H   0  0  0  0  0  0  0  0  0  0  0  0
   -7.3241   -1.0158   -0.4840 H   0  0  0  0  0  0  0  0  0  0  0  0
   -6.2940   -2.3786   -1.0780 H   0  0  0  0  0  0  0  0  0  0  0  0
   -5.8416   -0.9466   -2.8552 H   0  0  0  0  0  0  0  0  0  0  0  0
   -6.2601    0.5239   -1.8825 H   0  0  0  0  0  0  0  0  0  0  0  0
   -3.6127   -0.9098   -2.1176 H   0  0  0  0  0  0  0  0  0  0  0  0
   -3.9779    0.8321   -1.7300 H   0  0  0  0  0  0  0  0  0  0  0  0
   -1.8977    1.4793   -0.1536 H   0  0  0  0  0  0  0  0  0  0  0  0
   -1.5764   -0.1276   -0.9217 H   0  0  0  0  0  0  0  0  0  0  0  0
   -0.3475   -0.8292    0.9466 H   0  0  0  0  0  0  0  0  0  0  0  0
    0.3224    2.0265    0.3294 H   0  0  0  0  0  0  0  0  0  0  0  0
    1.3320    0.9423    1.3215 H   0  0  0  0  0  0  0  0  0  0  0  0
    1.4496   -0.7028   -0.6512 H   0  0  0  0  0  0  0  0  0  0  0  0
    0.5433    0.4990   -1.6316 H   0  0  0  0  0  0  0  0  0  0  0  0
    2.4796    1.7557   -1.8904 H   0  0  0  0  0  0  0  0  0  0  0  0
    4.8235    2.3579   -1.4572 H   0  0  0  0  0  0  0  0  0  0  0  0
    6.9105    1.9589   -0.2163 H   0  0  0  0  0  0  0  0  0  0  0  0
    4.8855   -1.0587    2.1071 H   0  0  0  0  0  0  0  0  0  0  0  0
  1  2  3  0
  2  3  1  0
  3  4  1  0
  4  5  1  0
  5  6  1  0
  6  7  1  0
  7  8  1  0
  8  9  2  0
  8 10  1  0
 10 11  1  0
 11 12  1  0
 12 13  1  0
 13 14  1  0
 14 15  1  0
 15 16  2  0
 16 17  1  0
 17 18  2  0
 18 19  1  0
 19 20  1  0
 19 21  1  0
 19 22  1  0
 18 23  1  0
 23 24  2  0
  7  3  1  0
 24 15  1  0
  3 25  1  1
  4 26  1  0
  4 27  1  0
  5 28  1  0
  5 29  1  0
  6 30  1  0
  6 31  1  0
 10 32  1  0
 10 33  1  0
 11 34  1  0
 12 35  1  0
 12 36  1  0
 13 37  1  0
 13 38  1  0
 14 39  1  0
 16 40  1  0
 17 41  1  0
 23 42  1  0
M  END
$$$$
