
     RDKit          3D

 37 38  0  0  0  0  0  0  0  0999 V2000
    1.2122   -0.9973    0.8017 C   0  0  0  0  0  0  0  0  0  0  0  0
    0.4290   -0.3618    1.9248 C   0  0  0  0  0  0  0  0  0  0  0  0
   -0.5538    0.6164    1.4320 N   0  0  0  0  0  0  0  0  0  0  0  0
   -1.6477    0.0100    0.6433 C   0  0  0  0  0  0  0  0  0  0  0  0
   -1.4426    0.2190   -0.8734 C   0  0  0  0  0  0  0  0  0  0  0  0
   -2.5392   -0.4870   -1.6969 C   0  0  0  0  0  0  0  0  0  0  0  0
   -3.8876   -0.5961   -0.9570 C   0  0  0  0  0  0  0  0  0  0  0  0
   -4.0949    0.5693    0.0155 C   0  0  0  0  0  0  0  0  0  0  0  0
   -2.9941    0.6216    1.0965 C   0  0  0  0  0  0  0  0  0  0  0  0
    2.3029   -0.4412    0.2420 C   0  0  0  0  0  0  0  0  0  0  0  0
    2.9342    0.8417    0.6710 C   0  0  0  0  0  0  0  0  0  0  0  0
    4.0271    1.0898   -0.3619 C   0  0  0  0  0  0  0  0  0  0  0  0
    4.3017   -0.2521   -1.0403 C   0  0  0  0  0  0  0  0  0  0  0  0
    3.0388   -1.0893   -0.8781 C   0  0  0  0  0  0  0  0  0  0  0  0
    0.8602   -1.9539    0.4251 H   0  0  0  0  0  0  0  0  0  0  0  0
    1.1173    0.1377    2.6392 H   0  0  0  0  0  0  0  0  0  0  0  0
   -0.0907   -1.1565    2.5030 H   0  0  0  0  0  0  0  0  0  0  0  0
   -0.0742    1.3787    0.8999 H   0  0  0  0  0  0  0  0  0  0  0  0
   -1.7046   -1.0887    0.8278 H   0  0  0  0  0  0  0  0  0  0  0  0
   -1.4632    1.3087   -1.0978 H   0  0  0  0  0  0  0  0  0  0  0  0
   -0.4506   -0.1657   -1.1902 H   0  0  0  0  0  0  0  0  0  0  0  0
   -2.1977   -1.5110   -1.9635 H   0  0  0  0  0  0  0  0  0  0  0  0
   -2.6842    0.0706   -2.6479 H   0  0  0  0  0  0  0  0  0  0  0  0
   -3.9239   -1.5512   -0.3879 H   0  0  0  0  0  0  0  0  0  0  0  0
   -4.7166   -0.6157   -1.6972 H   0  0  0  0  0  0  0  0  0  0  0  0
   -5.0896    0.4750    0.5023 H   0  0  0  0  0  0  0  0  0  0  0  0
   -4.0934    1.5207   -0.5611 H   0  0  0  0  0  0  0  0  0  0  0  0
   -2.8490    1.6846    1.3909 H   0  0  0  0  0  0  0  0  0  0  0  0
   -3.3426    0.0771    2.0014 H   0  0  0  0  0  0  0  0  0  0  0  0
    3.3761    0.7224    1.6838 H   0  0  0  0  0  0  0  0  0  0  0  0
    2.2065    1.6794    0.6671 H   0  0  0  0  0  0  0  0  0  0  0  0
    3.6620    1.8164   -1.1213 H   0  0  0  0  0  0  0  0  0  0  0  0
    4.9463    1.4962    0.1132 H   0  0  0  0  0  0  0  0  0  0  0  0
    4.5596   -0.1156   -2.1130 H   0  0  0  0  0  0  0  0  0  0  0  0
    5.1497   -0.7566   -0.5263 H   0  0  0  0  0  0  0  0  0  0  0  0
    2.4209   -1.0528   -1.8014 H   0  0  0  0  0  0  0  0  0  0  0  0
    3.2958   -2.1427   -0.6316 H   0  0  0  0  0  0  0  0  0  0  0  0
  1  2  1  0
  2  3  1  0
  3  4  1  0
  4  5  1  0
  5  6  1  0
  6  7  1  0
  7  8  1  0
  8  9  1  0
  1 10  2  3
 10 11  1  0
 11 12  1  0
 12 13  1  0
 13 14  1  0
  9  4  1  0
 14 10  1  0
  1 15  1  0
  2 16  1  0
  2 17  1  0
  3 18  1  0
  4 19  1  0
  5 20  1  0
  5 21  1  0
  6 22  1  0
  6 23  1  0
  7 24  1  0
  7 25  1  0
  8 26  1  0
  8 27  1  0
  9 28  1  0
  9 29  1  0
 11 30  1  0
 11 31  1  0
 12 32  1  0
 12 33  1  0
 13 34  1  0
 13 35  1  0
 14 36  1  0
 14 37  1  0
M  END
$$$$
