
     RDKit          3D

 54 56  0  0  0  0  0  0  0  0999 V2000
   -2.0290   -0.5374   -0.5324 N   0  0  0  0  0  0  0  0  0  0  0  0
   -2.2911   -0.2315    0.8776 C   0  0  1  0  0  0  0  0  0  0  0  0
   -1.1656    0.6568    1.4528 C   0  0  0  0  0  0  0  0  0  0  0  0
   -1.0388    1.9738    0.7283 C   0  0  0  0  0  0  0  0  0  0  0  0
   -1.7510    2.9445    1.1028 O   0  0  0  0  0  0  0  0  0  0  0  0
   -0.1926    2.1258   -0.4252 N   0  0  0  0  0  0  0  0  0  0  0  0
   -0.5685    2.9756   -1.5402 C   0  0  0  0  0  0  0  0  0  0  0  0
    0.3451    2.5736   -2.6876 C   0  0  0  0  0  0  0  0  0  0  0  0
    1.5278    1.8522   -2.0477 C   0  0  0  0  0  0  0  0  0  0  0  0
    1.0494    1.3983   -0.6608 C   0  0  1  0  0  0  0  0  0  0  0  0
    2.0875    1.7196    0.4333 C   0  0  0  0  0  0  0  0  0  0  0  0
    3.3301    0.9835    0.2039 N   0  0  0  0  0  0  0  0  0  0  0  0
    3.4555   -0.4204    0.4879 C   0  0  0  0  0  0  0  0  0  0  0  0
    2.4474   -1.0691    0.8815 O   0  0  0  0  0  0  0  0  0  0  0  0
    4.7465   -1.1279    0.3115 C   0  0  0  0  0  0  0  0  0  0  0  0
    4.7581   -2.5124    0.0583 C   0  0  0  0  0  0  0  0  0  0  0  0
    5.9679   -3.1933   -0.1068 C   0  0  0  0  0  0  0  0  0  0  0  0
    7.1784   -2.5037   -0.0133 C   0  0  0  0  0  0  0  0  0  0  0  0
    7.1818   -1.1321    0.2508 C   0  0  0  0  0  0  0  0  0  0  0  0
    8.3586   -0.4668    0.3560 F   0  0  0  0  0  0  0  0  0  0  0  0
    5.9741   -0.4457    0.4159 C   0  0  0  0  0  0  0  0  0  0  0  0
   -3.6757    0.4361    1.0436 C   0  0  0  0  0  0  0  0  0  0  0  0
   -4.8040   -0.5378    0.8050 C   0  0  0  0  0  0  0  0  0  0  0  0
   -5.4690   -0.5591   -0.4335 C   0  0  0  0  0  0  0  0  0  0  0  0
   -6.5011   -1.4730   -0.6650 C   0  0  0  0  0  0  0  0  0  0  0  0
   -6.8760   -2.3741    0.3344 C   0  0  0  0  0  0  0  0  0  0  0  0
   -6.2184   -2.3643    1.5671 C   0  0  0  0  0  0  0  0  0  0  0  0
   -5.1844   -1.4527    1.8052 C   0  0  0  0  0  0  0  0  0  0  0  0
   -4.5557   -1.4618    3.0081 F   0  0  0  0  0  0  0  0  0  0  0  0
   -1.1185   -1.0480   -0.5922 H   0  0  0  0  0  0  0  0  0  0  0  0
   -2.7459   -1.2207   -0.8662 H   0  0  0  0  0  0  0  0  0  0  0  0
   -2.2836   -1.1818    1.4596 H   0  0  0  0  0  0  0  0  0  0  0  0
   -0.2102    0.0962    1.4166 H   0  0  0  0  0  0  0  0  0  0  0  0
   -1.3655    0.8529    2.5289 H   0  0  0  0  0  0  0  0  0  0  0  0
   -1.6328    2.8087   -1.8167 H   0  0  0  0  0  0  0  0  0  0  0  0
   -0.4108    4.0409   -1.2654 H   0  0  0  0  0  0  0  0  0  0  0  0
    0.6759    3.4604   -3.2707 H   0  0  0  0  0  0  0  0  0  0  0  0
   -0.1932    1.8727   -3.3632 H   0  0  0  0  0  0  0  0  0  0  0  0
    1.8445    0.9830   -2.6647 H   0  0  0  0  0  0  0  0  0  0  0  0
    2.3816    2.5622   -1.9750 H   0  0  0  0  0  0  0  0  0  0  0  0
    0.8392    0.3091   -0.6884 H   0  0  0  0  0  0  0  0  0  0  0  0
    2.3006    2.8114    0.4315 H   0  0  0  0  0  0  0  0  0  0  0  0
    1.6938    1.4708    1.4409 H   0  0  0  0  0  0  0  0  0  0  0  0
    4.1368    1.5111   -0.1965 H   0  0  0  0  0  0  0  0  0  0  0  0
    3.8309   -3.0662   -0.0235 H   0  0  0  0  0  0  0  0  0  0  0  0
    5.9665   -4.2568   -0.3078 H   0  0  0  0  0  0  0  0  0  0  0  0
    8.1134   -3.0342   -0.1401 H   0  0  0  0  0  0  0  0  0  0  0  0
    6.0084    0.6094    0.6508 H   0  0  0  0  0  0  0  0  0  0  0  0
   -3.7642    1.2977    0.3461 H   0  0  0  0  0  0  0  0  0  0  0  0
   -3.7748    0.8470    2.0722 H   0  0  0  0  0  0  0  0  0  0  0  0
   -5.1855    0.1285   -1.2208 H   0  0  0  0  0  0  0  0  0  0  0  0
   -7.0092   -1.4839   -1.6206 H   0  0  0  0  0  0  0  0  0  0  0  0
   -7.6750   -3.0814    0.1531 H   0  0  0  0  0  0  0  0  0  0  0  0
   -6.5099   -3.0656    2.3384 H   0  0  0  0  0  0  0  0  0  0  0  0
  1  2  1  0
  2  3  1  0
  3  4  1  0
  4  5  2  0
  4  6  1  0
  6  7  1  0
  7  8  1  0
  8  9  1  0
  9 10  1  0
 10 11  1  0
 11 12  1  0
 12 13  1  0
 13 14  2  0
 13 15  1  0
 15 16  2  0
 16 17  1  0
 17 18  2  0
 18 19  1  0
 19 20  1  0
 19 21  2  0
  2 22  1  0
 22 23  1  0
 23 24  2  0
 24 25  1  0
 25 26  2  0
 26 27  1  0
 27 28  2  0
 28 29  1  0
 10  6  1  0
 21 15  1  0
 28 23  1  0
  1 30  1  0
  1 31  1  0
  2 32  1  1
  3 33  1  0
  3 34  1  0
  7 35  1  0
  7 36  1  0
  8 37  1  0
  8 38  1  0
  9 39  1  0
  9 40  1  0
 10 41  1  6
 11 42  1  0
 11 43  1  0
 12 44  1  0
 16 45  1  0
 17 46  1  0
 18 47  1  0
 21 48  1  0
 22 49  1  0
 22 50  1  0
 24 51  1  0
 25 52  1  0
 26 53  1  0
 27 54  1  0
M  END
$$$$
