
     RDKit          3D

 57 60  0  0  0  0  0  0  0  0999 V2000
   -1.0579   -1.4039    2.9402 C   0  0  0  0  0  0  0  0  0  0  0  0
   -2.3008   -1.7740    2.1309 C   0  0  2  0  0  0  0  0  0  0  0  0
   -2.7863   -2.9895    2.5809 F   0  0  0  0  0  0  0  0  0  0  0  0
   -1.9899   -1.8835    0.6307 C   0  0  0  0  0  0  0  0  0  0  0  0
   -1.4901   -0.5990    0.0879 N   0  0  0  0  0  0  0  0  0  0  0  0
   -0.5965   -0.7522   -1.0778 C   0  0  0  0  0  0  0  0  0  0  0  0
    0.2963    0.5105   -1.2604 C   0  0  2  0  0  0  0  0  0  0  0  0
    1.5275    0.4245   -0.4271 N   0  0  0  0  0  0  0  0  0  0  0  0
    2.4017   -0.7304   -0.7791 C   0  0  0  0  0  0  0  0  0  0  0  0
    3.7728   -0.1908   -0.7719 C   0  0  0  0  0  0  0  0  0  0  0  0
    4.9216   -0.6377   -0.1586 C   0  0  0  0  0  0  0  0  0  0  0  0
    5.5668    0.4527    0.3049 N   0  0  0  0  0  0  0  0  0  0  0  0
    7.0011    0.4295    1.2704 S   0  0  0  0  0  0  0  0  0  0  0  0
    8.2915   -0.4319    0.4008 C   0  0  0  0  0  0  0  0  0  0  0  0
    6.7173   -0.2557    2.5771 O   0  0  0  0  0  0  0  0  0  0  0  0
    7.4485    1.8392    1.5366 O   0  0  0  0  0  0  0  0  0  0  0  0
    4.8357    1.5400    0.0995 N   0  0  0  0  0  0  0  0  0  0  0  0
    3.7626    1.1374   -0.6063 C   0  0  0  0  0  0  0  0  0  0  0  0
    2.3820    1.6434   -0.5143 C   0  0  0  0  0  0  0  0  0  0  0  0
   -0.5038    1.8052   -0.9242 C   0  0  0  0  0  0  0  0  0  0  0  0
   -2.0250    1.6059   -1.0356 C   0  0  2  0  0  0  0  0  0  0  0  0
   -2.7411    2.8615   -0.7894 N   0  0  0  0  0  0  0  0  0  0  0  0
   -2.4777    0.5195   -0.0235 C   0  0  0  0  0  0  0  0  0  0  0  0
   -3.9287    0.0960   -0.2814 C   0  0  0  0  0  0  0  0  0  0  0  0
   -4.9048    0.3852    0.6946 C   0  0  0  0  0  0  0  0  0  0  0  0
   -6.2413    0.0271    0.5005 C   0  0  0  0  0  0  0  0  0  0  0  0
   -7.1632    0.3072    1.4544 F   0  0  0  0  0  0  0  0  0  0  0  0
   -6.6289   -0.6156   -0.6747 C   0  0  0  0  0  0  0  0  0  0  0  0
   -5.6821   -0.8963   -1.6596 C   0  0  0  0  0  0  0  0  0  0  0  0
   -4.3416   -0.5419   -1.4747 C   0  0  0  0  0  0  0  0  0  0  0  0
   -3.4656   -0.8291   -2.4647 F   0  0  0  0  0  0  0  0  0  0  0  0
   -0.2556   -2.1565    2.7852 H   0  0  0  0  0  0  0  0  0  0  0  0
   -1.3125   -1.3728    4.0206 H   0  0  0  0  0  0  0  0  0  0  0  0
   -0.6818   -0.4026    2.6406 H   0  0  0  0  0  0  0  0  0  0  0  0
   -3.0837   -1.0093    2.3061 H   0  0  0  0  0  0  0  0  0  0  0  0
   -1.2258   -2.6838    0.5158 H   0  0  0  0  0  0  0  0  0  0  0  0
   -2.8834   -2.2374    0.0773 H   0  0  0  0  0  0  0  0  0  0  0  0
    0.0312   -1.6596   -0.9757 H   0  0  0  0  0  0  0  0  0  0  0  0
   -1.1869   -0.9163   -1.9984 H   0  0  0  0  0  0  0  0  0  0  0  0
    0.5863    0.5590   -2.3357 H   0  0  0  0  0  0  0  0  0  0  0  0
    2.2947   -1.5299   -0.0150 H   0  0  0  0  0  0  0  0  0  0  0  0
    2.1892   -1.1340   -1.7940 H   0  0  0  0  0  0  0  0  0  0  0  0
    5.1811   -1.6611    0.0792 H   0  0  0  0  0  0  0  0  0  0  0  0
    9.2193   -0.4245    1.0093 H   0  0  0  0  0  0  0  0  0  0  0  0
    7.9796   -1.4808    0.2176 H   0  0  0  0  0  0  0  0  0  0  0  0
    8.4826    0.0697   -0.5701 H   0  0  0  0  0  0  0  0  0  0  0  0
    2.1731    2.2484   -1.4238 H   0  0  0  0  0  0  0  0  0  0  0  0
    2.2534    2.2614    0.3995 H   0  0  0  0  0  0  0  0  0  0  0  0
   -0.2721    2.1337    0.1137 H   0  0  0  0  0  0  0  0  0  0  0  0
   -0.1905    2.6209   -1.6117 H   0  0  0  0  0  0  0  0  0  0  0  0
   -2.2502    1.2807   -2.0743 H   0  0  0  0  0  0  0  0  0  0  0  0
   -2.4294    3.2706    0.1219 H   0  0  0  0  0  0  0  0  0  0  0  0
   -2.4858    3.5446   -1.5393 H   0  0  0  0  0  0  0  0  0  0  0  0
   -2.4466    1.0184    0.9710 H   0  0  0  0  0  0  0  0  0  0  0  0
   -4.6329    0.8899    1.6134 H   0  0  0  0  0  0  0  0  0  0  0  0
   -7.6644   -0.8926   -0.8257 H   0  0  0  0  0  0  0  0  0  0  0  0
   -5.9892   -1.3894   -2.5731 H   0  0  0  0  0  0  0  0  0  0  0  0
  1  2  1  0
  2  3  1  0
  2  4  1  0
  4  5  1  0
  5  6  1  0
  6  7  1  0
  7  8  1  0
  8  9  1  0
  9 10  1  0
 10 11  2  0
 11 12  1  0
 12 13  1  0
 13 14  1  0
 13 15  2  0
 13 16  2  0
 12 17  1  0
 17 18  2  0
 18 19  1  0
  7 20  1  0
 20 21  1  0
 21 22  1  0
 21 23  1  0
 23 24  1  0
 24 25  2  0
 25 26  1  0
 26 27  1  0
 26 28  2  0
 28 29  1  0
 29 30  2  0
 30 31  1  0
 23  5  1  0
 30 24  1  0
 19  8  1  0
 18 10  1  0
  1 32  1  0
  1 33  1  0
  1 34  1  0
  2 35  1  6
  4 36  1  0
  4 37  1  0
  6 38  1  0
  6 39  1  0
  7 40  1  6
  9 41  1  0
  9 42  1  0
 11 43  1  0
 14 44  1  0
 14 45  1  0
 14 46  1  0
 19 47  1  0
 19 48  1  0
 20 49  1  0
 20 50  1  0
 21 51  1  6
 22 52  1  0
 22 53  1  0
 23 54  1  0
 25 55  1  0
 28 56  1  0
 29 57  1  0
M  END
$$$$
