
     RDKit          3D

 40 42  0  0  0  0  0  0  0  0999 V2000
    2.1581    4.0863   -0.3943 C   0  0  0  0  0  0  0  0  0  0  0  0
    1.7158    2.8584   -1.0542 C   0  0  0  0  0  0  0  0  0  0  0  0
    1.3478    1.8453   -1.5931 C   0  0  0  0  0  0  0  0  0  0  0  0
    0.8939    0.6102   -2.2402 C   0  0  0  0  0  0  0  0  0  0  0  0
    1.1426   -0.5445   -1.3578 N   0  0  0  0  0  0  0  0  0  0  0  0
    0.2284   -0.8845   -0.3690 C   0  0  0  0  0  0  0  0  0  0  0  0
   -0.9883   -0.1454   -0.1992 N   0  0  0  0  0  0  0  0  0  0  0  0
   -2.1761   -0.5073   -0.9808 C   0  0  0  0  0  0  0  0  0  0  0  0
   -3.3620   -0.7391   -0.0401 C   0  0  0  0  0  0  0  0  0  0  0  0
   -3.6050    0.4420    0.9291 C   0  0  0  0  0  0  0  0  0  0  0  0
   -2.4692    1.4878    0.9382 C   0  0  1  0  0  0  0  0  0  0  0  0
   -2.6045    2.3701    2.0990 N   0  0  0  0  0  0  0  0  0  0  0  0
   -1.0867    0.8072    0.9129 C   0  0  0  0  0  0  0  0  0  0  0  0
    0.4780   -1.9259    0.4813 N   0  0  0  0  0  0  0  0  0  0  0  0
    1.6290   -2.6168    0.3427 C   0  0  0  0  0  0  0  0  0  0  0  0
    2.1046   -3.6817    1.0678 C   0  0  0  0  0  0  0  0  0  0  0  0
    1.2626   -4.5615    2.5359 Br  0  0  0  0  0  0  0  0  0  0  0  0
    3.3425   -3.9762    0.5032 C   0  0  0  0  0  0  0  0  0  0  0  0
    3.6116   -3.1285   -0.5200 N   0  0  0  0  0  0  0  0  0  0  0  0
    2.5494   -2.3071   -0.5997 C   0  0  0  0  0  0  0  0  0  0  0  0
    2.3242   -1.2494   -1.4695 C   0  0  0  0  0  0  0  0  0  0  0  0
    3.1930   -0.9463   -2.3329 O   0  0  0  0  0  0  0  0  0  0  0  0
    2.0835    4.9355   -1.1042 H   0  0  0  0  0  0  0  0  0  0  0  0
    1.5144    4.2835    0.4876 H   0  0  0  0  0  0  0  0  0  0  0  0
    3.2112    3.9705   -0.0649 H   0  0  0  0  0  0  0  0  0  0  0  0
   -0.1821    0.7021   -2.4873 H   0  0  0  0  0  0  0  0  0  0  0  0
    1.4197    0.4968   -3.2120 H   0  0  0  0  0  0  0  0  0  0  0  0
   -1.9915   -1.4287   -1.5763 H   0  0  0  0  0  0  0  0  0  0  0  0
   -2.4203    0.3140   -1.6882 H   0  0  0  0  0  0  0  0  0  0  0  0
   -4.2771   -0.9255   -0.6430 H   0  0  0  0  0  0  0  0  0  0  0  0
   -3.1616   -1.6595    0.5517 H   0  0  0  0  0  0  0  0  0  0  0  0
   -4.5529    0.9539    0.6535 H   0  0  0  0  0  0  0  0  0  0  0  0
   -3.7431    0.0332    1.9546 H   0  0  0  0  0  0  0  0  0  0  0  0
   -2.5651    2.1090    0.0189 H   0  0  0  0  0  0  0  0  0  0  0  0
   -1.8826    3.1241    2.0303 H   0  0  0  0  0  0  0  0  0  0  0  0
   -2.4054    1.8292    2.9723 H   0  0  0  0  0  0  0  0  0  0  0  0
   -0.2999    1.5836    0.8043 H   0  0  0  0  0  0  0  0  0  0  0  0
   -0.9152    0.2677    1.8702 H   0  0  0  0  0  0  0  0  0  0  0  0
    4.0095   -4.7645    0.8262 H   0  0  0  0  0  0  0  0  0  0  0  0
    4.4687   -3.1179   -1.1164 H   0  0  0  0  0  0  0  0  0  0  0  0
  1  2  1  0
  2  3  3  0
  3  4  1  0
  4  5  1  0
  5  6  1  0
  6  7  1  0
  7  8  1  0
  8  9  1  0
  9 10  1  0
 10 11  1  0
 11 12  1  0
 11 13  1  0
  6 14  2  0
 14 15  1  0
 15 16  1  0
 16 17  1  0
 16 18  2  0
 18 19  1  0
 19 20  1  0
 20 21  1  0
 21 22  2  0
 21  5  1  0
 13  7  1  0
 20 15  2  0
  1 23  1  0
  1 24  1  0
  1 25  1  0
  4 26  1  0
  4 27  1  0
  8 28  1  0
  8 29  1  0
  9 30  1  0
  9 31  1  0
 10 32  1  0
 10 33  1  0
 11 34  1  6
 12 35  1  0
 12 36  1  0
 13 37  1  0
 13 38  1  0
 18 39  1  0
 19 40  1  0
M  END
$$$$
