
     RDKit          3D

 40 41  0  0  0  0  0  0  0  0999 V2000
    8.9907   -0.6531   -1.6168 N   0  0  0  0  0  0  0  0  0  0  0  0
    7.9074   -0.5002   -1.2397 C   0  0  0  0  0  0  0  0  0  0  0  0
    6.5600   -0.3100   -0.7706 C   0  0  0  0  0  0  0  0  0  0  0  0
    6.1037   -0.9850    0.3659 C   0  0  0  0  0  0  0  0  0  0  0  0
    4.7941   -0.7914    0.8102 C   0  0  0  0  0  0  0  0  0  0  0  0
    3.9493    0.0803    0.1094 C   0  0  0  0  0  0  0  0  0  0  0  0
    2.6013    0.2891    0.5531 N   0  0  0  0  0  0  0  0  0  0  0  0
    1.6939    1.1923   -0.1569 C   0  0  0  0  0  0  0  0  0  0  0  0
    0.2968    1.2149    0.4892 C   0  0  0  0  0  0  0  0  0  0  0  0
   -0.4473   -0.0411    0.2802 N   0  0  0  0  0  0  0  0  0  0  0  0
   -1.1713   -0.0646   -0.9986 C   0  0  0  0  0  0  0  0  0  0  0  0
   -2.4886    0.6465   -0.8664 C   0  0  0  0  0  0  0  0  0  0  0  0
   -2.5917    1.8221   -1.3105 O   0  0  0  0  0  0  0  0  0  0  0  0
   -3.6194    0.0209   -0.2268 N   0  0  0  0  0  0  0  0  0  0  0  0
   -3.5446   -1.2425    0.4902 C   0  0  0  0  0  0  0  0  0  0  0  0
   -4.8412   -1.3472    1.2814 C   0  0  0  0  0  0  0  0  0  0  0  0
   -5.8047   -0.3513    0.6427 C   0  0  0  0  0  0  0  0  0  0  0  0
   -4.9282    0.6510   -0.1121 C   0  0  2  0  0  0  0  0  0  0  0  0
   -5.4872    0.9451   -1.4429 C   0  0  0  0  0  0  0  0  0  0  0  0
   -5.9258    1.1764   -2.4885 N   0  0  0  0  0  0  0  0  0  0  0  0
    4.4186    0.7261   -0.9954 N   0  0  0  0  0  0  0  0  0  0  0  0
    5.6899    0.5526   -1.4458 C   0  0  0  0  0  0  0  0  0  0  0  0
    6.7580   -1.6585    0.9063 H   0  0  0  0  0  0  0  0  0  0  0  0
    4.4413   -1.3145    1.6901 H   0  0  0  0  0  0  0  0  0  0  0  0
    2.2718   -0.2115    1.4102 H   0  0  0  0  0  0  0  0  0  0  0  0
    2.1151    2.2204   -0.1259 H   0  0  0  0  0  0  0  0  0  0  0  0
    1.6189    0.8843   -1.2210 H   0  0  0  0  0  0  0  0  0  0  0  0
    0.4061    1.3848    1.5817 H   0  0  0  0  0  0  0  0  0  0  0  0
   -0.2747    2.0842    0.0957 H   0  0  0  0  0  0  0  0  0  0  0  0
    0.2077   -0.8568    0.3114 H   0  0  0  0  0  0  0  0  0  0  0  0
   -1.3658   -1.1178   -1.2962 H   0  0  0  0  0  0  0  0  0  0  0  0
   -0.5701    0.3887   -1.8171 H   0  0  0  0  0  0  0  0  0  0  0  0
   -3.4615   -2.0790   -0.2367 H   0  0  0  0  0  0  0  0  0  0  0  0
   -2.6764   -1.2531    1.1832 H   0  0  0  0  0  0  0  0  0  0  0  0
   -4.6568   -1.0562    2.3392 H   0  0  0  0  0  0  0  0  0  0  0  0
   -5.2486   -2.3813    1.2547 H   0  0  0  0  0  0  0  0  0  0  0  0
   -6.4210    0.1584    1.4152 H   0  0  0  0  0  0  0  0  0  0  0  0
   -6.4834   -0.9042   -0.0462 H   0  0  0  0  0  0  0  0  0  0  0  0
   -4.8355    1.5942    0.4692 H   0  0  0  0  0  0  0  0  0  0  0  0
    6.0191    1.0869   -2.3282 H   0  0  0  0  0  0  0  0  0  0  0  0
  1  2  3  0
  2  3  1  0
  3  4  2  0
  4  5  1  0
  5  6  2  0
  6  7  1  0
  7  8  1  0
  8  9  1  0
  9 10  1  0
 10 11  1  0
 11 12  1  0
 12 13  2  0
 12 14  1  0
 14 15  1  0
 15 16  1  0
 16 17  1  0
 17 18  1  0
 18 19  1  0
 19 20  3  0
  6 21  1  0
 21 22  2  0
 22  3  1  0
 18 14  1  0
  4 23  1  0
  5 24  1  0
  7 25  1  0
  8 26  1  0
  8 27  1  0
  9 28  1  0
  9 29  1  0
 10 30  1  0
 11 31  1  0
 11 32  1  0
 15 33  1  0
 15 34  1  0
 16 35  1  0
 16 36  1  0
 17 37  1  0
 17 38  1  0
 18 39  1  1
 22 40  1  0
M  END
$$$$
