
     RDKit          3D

 64 68  0  0  0  0  0  0  0  0999 V2000
   -2.9805    4.2431    1.9389 C   0  0  0  0  0  0  0  0  0  0  0  0
   -2.4741    3.2593    0.9827 C   0  0  0  0  0  0  0  0  0  0  0  0
   -2.0586    2.4462    0.1963 C   0  0  0  0  0  0  0  0  0  0  0  0
   -1.5570    1.4515   -0.7557 C   0  0  0  0  0  0  0  0  0  0  0  0
   -1.3244    0.1758   -0.0740 N   0  0  0  0  0  0  0  0  0  0  0  0
   -2.1180   -0.9316   -0.0679 C   0  0  0  0  0  0  0  0  0  0  0  0
   -3.4229   -0.9955   -0.6664 N   0  0  0  0  0  0  0  0  0  0  0  0
   -3.8000   -2.2082   -1.4042 C   0  0  0  0  0  0  0  0  0  0  0  0
   -5.0690   -1.9710   -2.2288 C   0  0  0  0  0  0  0  0  0  0  0  0
   -6.2451   -1.4768   -1.3643 C   0  0  0  0  0  0  0  0  0  0  0  0
   -5.8065   -0.6657   -0.1217 C   0  0  0  0  0  0  0  0  0  0  0  0
   -6.8355    0.3143    0.2331 N   0  0  0  0  0  0  0  0  0  0  0  0
   -4.4404    0.0127   -0.3333 C   0  0  0  0  0  0  0  0  0  0  0  0
   -1.5667   -1.9931    0.5753 N   0  0  0  0  0  0  0  0  0  0  0  0
   -0.3882   -1.5009    1.0022 C   0  0  0  0  0  0  0  0  0  0  0  0
   -0.2380   -0.2093    0.6253 C   0  0  0  0  0  0  0  0  0  0  0  0
    0.9159    0.4892    0.9656 C   0  0  0  0  0  0  0  0  0  0  0  0
    1.0504    1.6987    0.6387 O   0  0  0  0  0  0  0  0  0  0  0  0
    1.8968   -0.1698    1.6731 N   0  0  0  0  0  0  0  0  0  0  0  0
    3.1590    0.5244    2.0030 C   0  0  0  0  0  0  0  0  0  0  0  0
    4.1764    0.3095    0.9050 C   0  0  0  0  0  0  0  0  0  0  0  0
    4.7482   -0.9245    0.8418 N   0  0  0  0  0  0  0  0  0  0  0  0
    5.6473   -1.2799   -0.1104 C   0  0  0  0  0  0  0  0  0  0  0  0
    6.2164   -2.6629   -0.1153 C   0  0  0  0  0  0  0  0  0  0  0  0
    6.0101   -0.3636   -1.0965 C   0  0  0  0  0  0  0  0  0  0  0  0
    5.4540    0.9199   -1.0846 C   0  0  0  0  0  0  0  0  0  0  0  0
    5.8193    1.8455   -2.0749 C   0  0  0  0  0  0  0  0  0  0  0  0
    5.2759    3.1292   -2.0727 C   0  0  0  0  0  0  0  0  0  0  0  0
    4.3686    3.5016   -1.0829 C   0  0  0  0  0  0  0  0  0  0  0  0
    3.9938    2.5937   -0.0891 C   0  0  0  0  0  0  0  0  0  0  0  0
    4.5229    1.2832   -0.0738 C   0  0  0  0  0  0  0  0  0  0  0  0
    1.7224   -1.4989    2.0292 C   0  0  0  0  0  0  0  0  0  0  0  0
    2.6398   -2.1095    2.6477 O   0  0  0  0  0  0  0  0  0  0  0  0
    0.5597   -2.1673    1.7142 N   0  0  0  0  0  0  0  0  0  0  0  0
    0.3793   -3.5828    2.0642 C   0  0  0  0  0  0  0  0  0  0  0  0
   -3.0147    5.2425    1.4585 H   0  0  0  0  0  0  0  0  0  0  0  0
   -2.3096    4.2797    2.8218 H   0  0  0  0  0  0  0  0  0  0  0  0
   -4.0014    3.9527    2.2619 H   0  0  0  0  0  0  0  0  0  0  0  0
   -0.6179    1.8189   -1.2175 H   0  0  0  0  0  0  0  0  0  0  0  0
   -2.2862    1.3254   -1.5809 H   0  0  0  0  0  0  0  0  0  0  0  0
   -2.9770   -2.4960   -2.0943 H   0  0  0  0  0  0  0  0  0  0  0  0
   -3.9670   -3.0422   -0.6883 H   0  0  0  0  0  0  0  0  0  0  0  0
   -5.3562   -2.9092   -2.7510 H   0  0  0  0  0  0  0  0  0  0  0  0
   -4.8446   -1.2087   -3.0074 H   0  0  0  0  0  0  0  0  0  0  0  0
   -6.9127   -0.8643   -2.0096 H   0  0  0  0  0  0  0  0  0  0  0  0
   -6.8398   -2.3526   -1.0235 H   0  0  0  0  0  0  0  0  0  0  0  0
   -5.6973   -1.3774    0.7282 H   0  0  0  0  0  0  0  0  0  0  0  0
   -6.5726    0.7610    1.1417 H   0  0  0  0  0  0  0  0  0  0  0  0
   -6.8560    1.0710   -0.4894 H   0  0  0  0  0  0  0  0  0  0  0  0
   -4.1598    0.5459    0.6014 H   0  0  0  0  0  0  0  0  0  0  0  0
   -4.5123    0.7536   -1.1577 H   0  0  0  0  0  0  0  0  0  0  0  0
    3.5805    0.1268    2.9519 H   0  0  0  0  0  0  0  0  0  0  0  0
    2.9764    1.5888    2.2406 H   0  0  0  0  0  0  0  0  0  0  0  0
    5.8503   -3.2135   -1.0071 H   0  0  0  0  0  0  0  0  0  0  0  0
    5.9078   -3.2146    0.7981 H   0  0  0  0  0  0  0  0  0  0  0  0
    7.3255   -2.6155   -0.1432 H   0  0  0  0  0  0  0  0  0  0  0  0
    6.7196   -0.6511   -1.8646 H   0  0  0  0  0  0  0  0  0  0  0  0
    6.5262    1.5758   -2.8508 H   0  0  0  0  0  0  0  0  0  0  0  0
    5.5614    3.8387   -2.8386 H   0  0  0  0  0  0  0  0  0  0  0  0
    3.9540    4.5017   -1.0834 H   0  0  0  0  0  0  0  0  0  0  0  0
    3.2975    2.9471    0.6521 H   0  0  0  0  0  0  0  0  0  0  0  0
   -0.6964   -3.8578    2.0988 H   0  0  0  0  0  0  0  0  0  0  0  0
    0.7999   -3.7940    3.0706 H   0  0  0  0  0  0  0  0  0  0  0  0
    0.8913   -4.2196    1.3125 H   0  0  0  0  0  0  0  0  0  0  0  0
  1  2  1  0
  2  3  3  0
  3  4  1  0
  4  5  1  0
  5  6  1  0
  6  7  1  0
  7  8  1  0
  8  9  1  0
  9 10  1  0
 10 11  1  0
 11 12  1  0
 11 13  1  0
  6 14  2  0
 14 15  1  0
 15 16  2  0
 16 17  1  0
 17 18  2  0
 17 19  1  0
 19 20  1  0
 20 21  1  0
 21 22  2  0
 22 23  1  0
 23 24  1  0
 23 25  2  0
 25 26  1  0
 26 27  2  0
 27 28  1  0
 28 29  2  0
 29 30  1  0
 30 31  2  0
 19 32  1  0
 32 33  2  0
 32 34  1  0
 34 35  1  0
 16  5  1  0
 31 21  1  0
 13  7  1  0
 34 15  1  0
 31 26  1  0
  1 36  1  0
  1 37  1  0
  1 38  1  0
  4 39  1  0
  4 40  1  0
  8 41  1  0
  8 42  1  0
  9 43  1  0
  9 44  1  0
 10 45  1  0
 10 46  1  0
 11 47  1  0
 12 48  1  0
 12 49  1  0
 13 50  1  0
 13 51  1  0
 20 52  1  0
 20 53  1  0
 24 54  1  0
 24 55  1  0
 24 56  1  0
 25 57  1  0
 27 58  1  0
 28 59  1  0
 29 60  1  0
 30 61  1  0
 35 62  1  0
 35 63  1  0
 35 64  1  0
M  END
$$$$
