
     RDKit          3D

 30 31  0  0  0  0  0  0  0  0999 V2000
    0.0056   -2.7432    0.4295 N   0  0  0  0  0  0  0  0  0  0  0  0
   -0.5813   -1.9059   -0.6175 C   0  0  0  0  0  0  0  0  0  0  0  0
   -0.5435   -0.3931   -0.2310 C   0  0  0  0  0  0  0  0  0  0  0  0
    0.8933    0.1593   -0.0568 C   0  0  0  0  0  0  0  0  0  0  0  0
    1.9929   -0.3832   -0.7658 C   0  0  0  0  0  0  0  0  0  0  0  0
    3.2710    0.1708   -0.6480 C   0  0  0  0  0  0  0  0  0  0  0  0
    3.4773    1.2996    0.1420 C   0  0  0  0  0  0  0  0  0  0  0  0
    2.4013    1.8911    0.7996 C   0  0  0  0  0  0  0  0  0  0  0  0
    1.1211    1.3422    0.6875 C   0  0  0  0  0  0  0  0  0  0  0  0
   -1.2606    0.4319   -1.3293 C   0  0  0  0  0  0  0  0  0  0  0  0
   -2.6289    0.7974   -0.7790 C   0  0  0  0  0  0  0  0  0  0  0  0
   -2.4486    0.8668    0.7225 C   0  0  0  0  0  0  0  0  0  0  0  0
   -1.4157   -0.2009    1.0484 C   0  0  0  0  0  0  0  0  0  0  0  0
    1.0460   -2.6632    0.3859 H   0  0  0  0  0  0  0  0  0  0  0  0
   -0.2189   -3.7394    0.2045 H   0  0  0  0  0  0  0  0  0  0  0  0
   -0.0878   -2.1016   -1.5931 H   0  0  0  0  0  0  0  0  0  0  0  0
   -1.6419   -2.2142   -0.7621 H   0  0  0  0  0  0  0  0  0  0  0  0
    1.8861   -1.2319   -1.4218 H   0  0  0  0  0  0  0  0  0  0  0  0
    4.1021   -0.2705   -1.1832 H   0  0  0  0  0  0  0  0  0  0  0  0
    4.4672    1.7290    0.2265 H   0  0  0  0  0  0  0  0  0  0  0  0
    2.5553    2.7874    1.3867 H   0  0  0  0  0  0  0  0  0  0  0  0
    0.3101    1.8643    1.1732 H   0  0  0  0  0  0  0  0  0  0  0  0
   -0.7150    1.3773   -1.5506 H   0  0  0  0  0  0  0  0  0  0  0  0
   -1.3626   -0.1195   -2.2901 H   0  0  0  0  0  0  0  0  0  0  0  0
   -2.9897    1.7657   -1.1888 H   0  0  0  0  0  0  0  0  0  0  0  0
   -3.3590   -0.0037   -1.0304 H   0  0  0  0  0  0  0  0  0  0  0  0
   -2.0643    1.8702    1.0072 H   0  0  0  0  0  0  0  0  0  0  0  0
   -3.4087    0.6827    1.2520 H   0  0  0  0  0  0  0  0  0  0  0  0
   -0.8312    0.0634    1.9547 H   0  0  0  0  0  0  0  0  0  0  0  0
   -1.9715   -1.1286    1.3131 H   0  0  0  0  0  0  0  0  0  0  0  0
  1  2  1  0
  2  3  1  0
  3  4  1  0
  4  5  2  0
  5  6  1  0
  6  7  2  0
  7  8  1  0
  8  9  2  0
  3 10  1  0
 10 11  1  0
 11 12  1  0
 12 13  1  0
 13  3  1  0
  9  4  1  0
  1 14  1  0
  1 15  1  0
  2 16  1  0
  2 17  1  0
  5 18  1  0
  6 19  1  0
  7 20  1  0
  8 21  1  0
  9 22  1  0
 10 23  1  0
 10 24  1  0
 11 25  1  0
 11 26  1  0
 12 27  1  0
 12 28  1  0
 13 29  1  0
 13 30  1  0
M  END
$$$$
