
     RDKit          3D

 51 53  0  0  0  0  0  0  0  0999 V2000
   -1.5033   -0.7252   -0.9371 N   0  0  0  0  0  0  0  0  0  0  0  0
   -2.2448   -0.1343    0.1805 C   0  0  1  0  0  0  0  0  0  0  0  0
   -1.9906   -0.8919    1.5064 C   0  0  0  0  0  0  0  0  0  0  0  0
   -0.5697   -0.7904    2.0069 C   0  0  0  0  0  0  0  0  0  0  0  0
   -0.2236    0.2537    2.6236 O   0  0  0  0  0  0  0  0  0  0  0  0
    0.3904   -1.8485    1.8066 N   0  0  0  0  0  0  0  0  0  0  0  0
    0.0581   -3.1637    1.2785 C   0  0  0  0  0  0  0  0  0  0  0  0
    1.3626   -3.9475    1.2576 C   0  0  0  0  0  0  0  0  0  0  0  0
    2.3058   -3.2064    2.1983 C   0  0  0  0  0  0  0  0  0  0  0  0
    1.7668   -1.7748    2.2864 C   0  0  1  0  0  0  0  0  0  0  0  0
    2.5937   -0.7932    1.4402 C   0  0  0  0  0  0  0  0  0  0  0  0
    2.4583   -1.1045    0.0658 O   0  0  0  0  0  0  0  0  0  0  0  0
    3.4193   -0.4107   -0.7067 C   0  0  0  0  0  0  0  0  0  0  0  0
    3.0758    1.0847   -0.8228 C   0  0  0  0  0  0  0  0  0  0  0  0
    3.2803    1.7103   -2.1950 C   0  0  0  0  0  0  0  0  0  0  0  0
    1.8760    1.4027   -1.6988 C   0  0  0  0  0  0  0  0  0  0  0  0
   -1.9350    1.3728    0.2891 C   0  0  0  0  0  0  0  0  0  0  0  0
   -2.5914    2.1451   -0.8299 C   0  0  0  0  0  0  0  0  0  0  0  0
   -1.9365    2.2910   -2.0645 C   0  0  0  0  0  0  0  0  0  0  0  0
   -2.5502    2.9806   -3.1144 C   0  0  0  0  0  0  0  0  0  0  0  0
   -1.9059    3.1189   -4.2996 F   0  0  0  0  0  0  0  0  0  0  0  0
   -3.8283    3.5207   -2.9445 C   0  0  0  0  0  0  0  0  0  0  0  0
   -4.4258    4.1881   -3.9626 F   0  0  0  0  0  0  0  0  0  0  0  0
   -4.4955    3.3654   -1.7265 C   0  0  0  0  0  0  0  0  0  0  0  0
   -3.8860    2.6762   -0.6728 C   0  0  0  0  0  0  0  0  0  0  0  0
   -4.5599    2.5234    0.4955 F   0  0  0  0  0  0  0  0  0  0  0  0
   -0.4804   -0.7322   -0.7202 H   0  0  0  0  0  0  0  0  0  0  0  0
   -1.8147   -1.7152   -1.0640 H   0  0  0  0  0  0  0  0  0  0  0  0
   -3.3323   -0.2427   -0.0353 H   0  0  0  0  0  0  0  0  0  0  0  0
   -2.2910   -1.9524    1.3840 H   0  0  0  0  0  0  0  0  0  0  0  0
   -2.6656   -0.4781    2.2871 H   0  0  0  0  0  0  0  0  0  0  0  0
   -0.6751   -3.6618    1.9493 H   0  0  0  0  0  0  0  0  0  0  0  0
   -0.3559   -3.0836    0.2525 H   0  0  0  0  0  0  0  0  0  0  0  0
    1.2101   -4.9998    1.5819 H   0  0  0  0  0  0  0  0  0  0  0  0
    1.7860   -3.9404    0.2289 H   0  0  0  0  0  0  0  0  0  0  0  0
    3.3561   -3.2575    1.8359 H   0  0  0  0  0  0  0  0  0  0  0  0
    2.2586   -3.6789    3.2043 H   0  0  0  0  0  0  0  0  0  0  0  0
    1.7810   -1.4432    3.3488 H   0  0  0  0  0  0  0  0  0  0  0  0
    2.2217    0.2360    1.6329 H   0  0  0  0  0  0  0  0  0  0  0  0
    3.6534   -0.8488    1.7812 H   0  0  0  0  0  0  0  0  0  0  0  0
    3.4420   -0.8865   -1.7106 H   0  0  0  0  0  0  0  0  0  0  0  0
    4.4475   -0.5282   -0.2966 H   0  0  0  0  0  0  0  0  0  0  0  0
    3.2301    1.7671    0.0399 H   0  0  0  0  0  0  0  0  0  0  0  0
    3.5328    2.7915   -2.1765 H   0  0  0  0  0  0  0  0  0  0  0  0
    3.6271    1.0351   -3.0060 H   0  0  0  0  0  0  0  0  0  0  0  0
    1.3963    0.5351   -2.2008 H   0  0  0  0  0  0  0  0  0  0  0  0
    1.3051    2.2988   -1.3766 H   0  0  0  0  0  0  0  0  0  0  0  0
   -0.8354    1.5397    0.2662 H   0  0  0  0  0  0  0  0  0  0  0  0
   -2.2941    1.7636    1.2661 H   0  0  0  0  0  0  0  0  0  0  0  0
   -0.9552    1.8637   -2.2163 H   0  0  0  0  0  0  0  0  0  0  0  0
   -5.4890    3.7763   -1.5996 H   0  0  0  0  0  0  0  0  0  0  0  0
  1  2  1  0
  2  3  1  0
  3  4  1  0
  4  5  2  0
  4  6  1  0
  6  7  1  0
  7  8  1  0
  8  9  1  0
  9 10  1  0
 10 11  1  0
 11 12  1  0
 12 13  1  0
 13 14  1  0
 14 15  1  0
 15 16  1  0
  2 17  1  0
 17 18  1  0
 18 19  2  0
 19 20  1  0
 20 21  1  0
 20 22  2  0
 22 23  1  0
 22 24  1  0
 24 25  2  0
 25 26  1  0
 10  6  1  0
 16 14  1  0
 25 18  1  0
  1 27  1  0
  1 28  1  0
  2 29  1  6
  3 30  1  0
  3 31  1  0
  7 32  1  0
  7 33  1  0
  8 34  1  0
  8 35  1  0
  9 36  1  0
  9 37  1  0
 10 38  1  1
 11 39  1  0
 11 40  1  0
 13 41  1  0
 13 42  1  0
 14 43  1  0
 15 44  1  0
 15 45  1  0
 16 46  1  0
 16 47  1  0
 17 48  1  0
 17 49  1  0
 19 50  1  0
 24 51  1  0
M  END
$$$$
