
     RDKit          3D

 46 48  0  0  0  0  0  0  0  0999 V2000
    6.0049   -0.1252    2.3258 N   0  0  0  0  0  0  0  0  0  0  0  0
    5.3613   -0.4856    1.4341 C   0  0  0  0  0  0  0  0  0  0  0  0
    4.5416   -0.9438    0.2995 C   0  0  2  0  0  0  0  0  0  0  0  0
    5.3612   -0.9788   -0.9886 C   0  0  0  0  0  0  0  0  0  0  0  0
    5.0324    0.3200   -1.7164 C   0  0  0  0  0  0  0  0  0  0  0  0
    3.6748    0.7604   -1.1820 C   0  0  0  0  0  0  0  0  0  0  0  0
    3.4651    0.0042    0.0459 N   0  0  0  0  0  0  0  0  0  0  0  0
    2.3191    0.1262    0.9179 C   0  0  0  0  0  0  0  0  0  0  0  0
    2.3771   -0.3659    2.0778 O   0  0  0  0  0  0  0  0  0  0  0  0
    1.0108    0.7533    0.4795 C   0  0  1  0  0  0  0  0  0  0  0  0
    1.2390    2.0668   -0.1223 N   0  0  0  0  0  0  0  0  0  0  0  0
    0.2421   -0.1597   -0.5026 C   0  0  0  0  0  0  0  0  0  0  0  0
   -0.1064   -1.5510    0.0641 C   0  0  0  0  0  0  0  0  0  0  0  0
   -1.1108   -1.5220    1.2264 C   0  0  0  0  0  0  0  0  0  0  0  0
   -2.3614   -0.8695    0.8385 N   0  0  0  0  0  0  0  0  0  0  0  0
   -3.3336   -1.4036   -0.1227 C   0  0  0  0  0  0  0  0  0  0  0  0
   -4.3875   -0.3343   -0.1765 C   0  0  0  0  0  0  0  0  0  0  0  0
   -5.5574   -0.3152   -0.9373 C   0  0  0  0  0  0  0  0  0  0  0  0
   -6.4061    0.8013   -0.8352 C   0  0  0  0  0  0  0  0  0  0  0  0
   -6.0748    1.8738    0.0183 C   0  0  0  0  0  0  0  0  0  0  0  0
   -4.8926    1.8383    0.7763 C   0  0  0  0  0  0  0  0  0  0  0  0
   -4.0713    0.7188    0.6548 C   0  0  0  0  0  0  0  0  0  0  0  0
   -2.8189    0.4022    1.2915 C   0  0  0  0  0  0  0  0  0  0  0  0
   -2.2138    1.1245    2.1273 O   0  0  0  0  0  0  0  0  0  0  0  0
    4.1279   -1.9521    0.5200 H   0  0  0  0  0  0  0  0  0  0  0  0
    5.0240   -1.8370   -1.6111 H   0  0  0  0  0  0  0  0  0  0  0  0
    6.4554   -1.0813   -0.8120 H   0  0  0  0  0  0  0  0  0  0  0  0
    5.7994    1.0863   -1.4677 H   0  0  0  0  0  0  0  0  0  0  0  0
    5.0082    0.1716   -2.8180 H   0  0  0  0  0  0  0  0  0  0  0  0
    2.8847    0.5234   -1.9226 H   0  0  0  0  0  0  0  0  0  0  0  0
    3.6891    1.8506   -0.9698 H   0  0  0  0  0  0  0  0  0  0  0  0
    0.3785    0.9054    1.3817 H   0  0  0  0  0  0  0  0  0  0  0  0
    1.7033    2.6777    0.5893 H   0  0  0  0  0  0  0  0  0  0  0  0
    0.3107    2.5079   -0.3180 H   0  0  0  0  0  0  0  0  0  0  0  0
    0.8439   -0.3074   -1.4221 H   0  0  0  0  0  0  0  0  0  0  0  0
   -0.6937    0.3478   -0.8216 H   0  0  0  0  0  0  0  0  0  0  0  0
    0.8188   -2.0679    0.3968 H   0  0  0  0  0  0  0  0  0  0  0  0
   -0.5314   -2.1674   -0.7570 H   0  0  0  0  0  0  0  0  0  0  0  0
   -0.6658   -1.0171    2.1090 H   0  0  0  0  0  0  0  0  0  0  0  0
   -1.3325   -2.5666    1.5326 H   0  0  0  0  0  0  0  0  0  0  0  0
   -3.7611   -2.3586    0.2493 H   0  0  0  0  0  0  0  0  0  0  0  0
   -2.8665   -1.5330   -1.1216 H   0  0  0  0  0  0  0  0  0  0  0  0
   -5.8060   -1.1405   -1.5917 H   0  0  0  0  0  0  0  0  0  0  0  0
   -7.3187    0.8377   -1.4158 H   0  0  0  0  0  0  0  0  0  0  0  0
   -6.7343    2.7289    0.0898 H   0  0  0  0  0  0  0  0  0  0  0  0
   -4.6288    2.6564    1.4339 H   0  0  0  0  0  0  0  0  0  0  0  0
  1  2  3  0
  2  3  1  0
  3  4  1  0
  4  5  1  0
  5  6  1  0
  6  7  1  0
  7  8  1  0
  8  9  2  0
  8 10  1  0
 10 11  1  0
 10 12  1  0
 12 13  1  0
 13 14  1  0
 14 15  1  0
 15 16  1  0
 16 17  1  0
 17 18  2  0
 18 19  1  0
 19 20  2  0
 20 21  1  0
 21 22  2  0
 22 23  1  0
 23 24  2  0
  7  3  1  0
 23 15  1  0
 22 17  1  0
  3 25  1  1
  4 26  1  0
  4 27  1  0
  5 28  1  0
  5 29  1  0
  6 30  1  0
  6 31  1  0
 10 32  1  1
 11 33  1  0
 11 34  1  0
 12 35  1  0
 12 36  1  0
 13 37  1  0
 13 38  1  0
 14 39  1  0
 14 40  1  0
 16 41  1  0
 16 42  1  0
 18 43  1  0
 19 44  1  0
 20 45  1  0
 21 46  1  0
M  END
$$$$
