
     RDKit          3D

 64 66  0  0  0  0  0  0  0  0999 V2000
    0.6878    0.0000    0.0000 Cl  0  0  0  0  0  0  0  0  0  0  0  0
    3.1198   -1.5896   -0.9913 N   0  0  0  0  0  0  0  0  0  0  0  0
    3.1810   -1.0664    0.3780 C   0  0  1  0  0  0  0  0  0  0  0  0
    2.2986   -1.8969    1.3372 C   0  0  0  0  0  0  0  0  0  0  0  0
    0.8359   -1.7920    0.9871 C   0  0  0  0  0  0  0  0  0  0  0  0
    0.2485   -2.8344    0.5868 O   0  0  0  0  0  0  0  0  0  0  0  0
    0.1108   -0.5392    1.0412 N   0  0  0  0  0  0  0  0  0  0  0  0
    0.4973    0.5504    1.9632 C   0  0  0  0  0  0  0  0  0  0  0  0
    0.5186    1.8991    1.2293 C   0  0  0  0  0  0  0  0  0  0  0  0
   -0.6452    2.0170    0.3553 N   0  0  0  0  0  0  0  0  0  0  0  0
   -1.3694    0.9975   -0.1268 C   0  0  0  0  0  0  0  0  0  0  0  0
   -2.2669    1.4139   -1.0410 N   0  0  0  0  0  0  0  0  0  0  0  0
   -2.1065    2.7256   -1.1614 N   0  0  0  0  0  0  0  0  0  0  0  0
   -1.1141    3.0836   -0.3197 C   0  0  0  0  0  0  0  0  0  0  0  0
   -0.5906    4.4812   -0.1886 C   0  0  0  0  0  0  0  0  0  0  0  0
    0.7545    4.5059   -0.5060 F   0  0  0  0  0  0  0  0  0  0  0  0
   -1.2710    5.3282   -1.0448 F   0  0  0  0  0  0  0  0  0  0  0  0
   -0.7636    4.9209    1.1103 F   0  0  0  0  0  0  0  0  0  0  0  0
   -1.1745   -0.4242    0.3198 C   0  0  0  0  0  0  0  0  0  0  0  0
   -2.3304   -0.8855    1.2305 C   0  0  0  0  0  0  0  0  0  0  0  0
   -3.6251   -1.0296    0.4705 C   0  0  0  0  0  0  0  0  0  0  0  0
   -4.6116   -0.0358    0.5539 C   0  0  0  0  0  0  0  0  0  0  0  0
   -5.8063   -0.1506   -0.1749 C   0  0  0  0  0  0  0  0  0  0  0  0
   -6.8854    0.8942   -0.0348 C   0  0  0  0  0  0  0  0  0  0  0  0
   -7.7017    0.5650    1.0311 F   0  0  0  0  0  0  0  0  0  0  0  0
   -6.3304    2.1422    0.1904 F   0  0  0  0  0  0  0  0  0  0  0  0
   -7.6521    0.9645   -1.1852 F   0  0  0  0  0  0  0  0  0  0  0  0
   -6.0212   -1.2951   -0.9616 C   0  0  0  0  0  0  0  0  0  0  0  0
   -5.0289   -2.2833   -1.0799 C   0  0  0  0  0  0  0  0  0  0  0  0
   -5.2802   -3.5214   -1.9042 C   0  0  0  0  0  0  0  0  0  0  0  0
   -5.8835   -4.4803   -1.1123 F   0  0  0  0  0  0  0  0  0  0  0  0
   -6.1080   -3.2357   -2.9762 F   0  0  0  0  0  0  0  0  0  0  0  0
   -4.0917   -4.0289   -2.4004 F   0  0  0  0  0  0  0  0  0  0  0  0
   -3.8392   -2.1494   -0.3460 C   0  0  0  0  0  0  0  0  0  0  0  0
    4.6399   -1.0511    0.8688 C   0  0  0  0  0  0  0  0  0  0  0  0
    5.4884   -0.1220    0.0355 C   0  0  0  0  0  0  0  0  0  0  0  0
    5.4701    1.2592    0.2953 C   0  0  0  0  0  0  0  0  0  0  0  0
    6.2256    2.1362   -0.4889 C   0  0  0  0  0  0  0  0  0  0  0  0
    6.2024    3.4667   -0.2277 F   0  0  0  0  0  0  0  0  0  0  0  0
    6.9999    1.6424   -1.5429 C   0  0  0  0  0  0  0  0  0  0  0  0
    7.7321    2.4920   -2.3051 F   0  0  0  0  0  0  0  0  0  0  0  0
    7.0160    0.2717   -1.8155 C   0  0  0  0  0  0  0  0  0  0  0  0
    6.2616   -0.6105   -1.0349 C   0  0  0  0  0  0  0  0  0  0  0  0
    6.2834   -1.9359   -1.3263 F   0  0  0  0  0  0  0  0  0  0  0  0
   -0.6878    0.0000    0.0000 H   0  0  0  0  0  0  0  0  0  0  0  0
    3.3133   -2.6178   -0.9834 H   0  0  0  0  0  0  0  0  0  0  0  0
    2.1546   -1.4499   -1.3685 H   0  0  0  0  0  0  0  0  0  0  0  0
    2.8154   -0.0172    0.3716 H   0  0  0  0  0  0  0  0  0  0  0  0
    2.6145   -2.9628    1.2929 H   0  0  0  0  0  0  0  0  0  0  0  0
    2.4512   -1.5816    2.3899 H   0  0  0  0  0  0  0  0  0  0  0  0
   -0.2383    0.5987    2.7943 H   0  0  0  0  0  0  0  0  0  0  0  0
    1.4913    0.3891    2.4206 H   0  0  0  0  0  0  0  0  0  0  0  0
    1.4401    1.9714    0.6134 H   0  0  0  0  0  0  0  0  0  0  0  0
    0.5228    2.7250    1.9720 H   0  0  0  0  0  0  0  0  0  0  0  0
   -1.1429   -1.0570   -0.5953 H   0  0  0  0  0  0  0  0  0  0  0  0
   -2.0749   -1.8688    1.6816 H   0  0  0  0  0  0  0  0  0  0  0  0
   -2.4544   -0.1741    2.0765 H   0  0  0  0  0  0  0  0  0  0  0  0
   -4.4462    0.8270    1.1880 H   0  0  0  0  0  0  0  0  0  0  0  0
   -6.9631   -1.4179   -1.4821 H   0  0  0  0  0  0  0  0  0  0  0  0
   -3.0780   -2.9185   -0.4014 H   0  0  0  0  0  0  0  0  0  0  0  0
    5.0565   -2.0820    0.8536 H   0  0  0  0  0  0  0  0  0  0  0  0
    4.6725   -0.7103    1.9273 H   0  0  0  0  0  0  0  0  0  0  0  0
    4.8669    1.6548    1.1035 H   0  0  0  0  0  0  0  0  0  0  0  0
    7.6116   -0.1078   -2.6359 H   0  0  0  0  0  0  0  0  0  0  0  0
  2  3  1  0
  3  4  1  0
  4  5  1  0
  5  6  2  0
  5  7  1  0
  7  8  1  0
  8  9  1  0
  9 10  1  0
 10 11  1  0
 11 12  2  0
 12 13  1  0
 13 14  2  0
 14 15  1  0
 15 16  1  0
 15 17  1  0
 15 18  1  0
 11 19  1  0
 19 20  1  0
 20 21  1  0
 21 22  2  0
 22 23  1  0
 23 24  1  0
 24 25  1  0
 24 26  1  0
 24 27  1  0
 23 28  2  0
 28 29  1  0
 29 30  1  0
 30 31  1  0
 30 32  1  0
 30 33  1  0
 29 34  2  0
  3 35  1  0
 35 36  1  0
 36 37  2  0
 37 38  1  0
 38 39  1  0
 38 40  2  0
 40 41  1  0
 40 42  1  0
 42 43  2  0
 43 44  1  0
 19  7  1  0
 34 21  1  0
 43 36  1  0
 14 10  1  0
  1 45  1  0
  2 46  1  0
  2 47  1  0
  3 48  1  6
  4 49  1  0
  4 50  1  0
  8 51  1  0
  8 52  1  0
  9 53  1  0
  9 54  1  0
 19 55  1  0
 20 56  1  0
 20 57  1  0
 22 58  1  0
 28 59  1  0
 34 60  1  0
 35 61  1  0
 35 62  1  0
 37 63  1  0
 42 64  1  0
M  END
$$$$
