
     RDKit          3D

 47 50  0  0  0  0  0  0  0  0999 V2000
    7.1807    0.8579   -1.8532 C   0  0  0  0  0  0  0  0  0  0  0  0
    6.3823   -0.5809   -1.1767 S   0  0  0  0  0  0  0  0  0  0  0  0
    5.9225   -1.4751   -2.2931 O   0  0  0  0  0  0  0  0  0  0  0  0
    7.3653   -1.3188   -0.3121 O   0  0  0  0  0  0  0  0  0  0  0  0
    5.0227   -0.0975   -0.2237 N   0  0  0  0  0  0  0  0  0  0  0  0
    4.4282   -0.8503    0.7250 C   0  0  0  0  0  0  0  0  0  0  0  0
    3.3161   -0.1568    1.1479 C   0  0  0  0  0  0  0  0  0  0  0  0
    3.2729    0.9532    0.4001 C   0  0  0  0  0  0  0  0  0  0  0  0
    4.2880    0.9757   -0.4832 N   0  0  0  0  0  0  0  0  0  0  0  0
    1.8811    1.3845    0.1835 C   0  0  0  0  0  0  0  0  0  0  0  0
    1.0460    0.2571    0.6863 N   0  0  0  0  0  0  0  0  0  0  0  0
   -0.1596    0.7024    1.4399 C   0  0  1  0  0  0  0  0  0  0  0  0
   -0.9970    1.6905    0.5828 C   0  0  0  0  0  0  0  0  0  0  0  0
   -2.7105    1.9133    1.1788 S   0  0  0  0  0  0  0  0  0  0  0  0
   -3.2889    0.1684    1.0367 C   0  0  0  0  0  0  0  0  0  0  0  0
   -4.3713   -0.0113   -0.0166 C   0  0  0  0  0  0  0  0  0  0  0  0
   -5.4931   -0.8057    0.2904 C   0  0  0  0  0  0  0  0  0  0  0  0
   -6.4968   -1.0207   -0.6579 C   0  0  0  0  0  0  0  0  0  0  0  0
   -7.5736   -1.7823   -0.3437 F   0  0  0  0  0  0  0  0  0  0  0  0
   -6.3897   -0.4567   -1.9296 C   0  0  0  0  0  0  0  0  0  0  0  0
   -5.2756    0.3175   -2.2586 C   0  0  0  0  0  0  0  0  0  0  0  0
   -5.1705    0.8504   -3.5012 F   0  0  0  0  0  0  0  0  0  0  0  0
   -4.2656    0.5378   -1.3147 C   0  0  0  0  0  0  0  0  0  0  0  0
   -3.1868    1.2711   -1.6817 F   0  0  0  0  0  0  0  0  0  0  0  0
   -2.1637   -0.8962    0.9538 C   0  0  1  0  0  0  0  0  0  0  0  0
   -1.6725   -1.0940   -0.4150 N   0  0  0  0  0  0  0  0  0  0  0  0
   -1.0125   -0.5187    1.9070 C   0  0  0  0  0  0  0  0  0  0  0  0
    1.9556   -0.6172    1.4796 C   0  0  0  0  0  0  0  0  0  0  0  0
    7.4989    1.5276   -1.0278 H   0  0  0  0  0  0  0  0  0  0  0  0
    8.0694    0.5483   -2.4408 H   0  0  0  0  0  0  0  0  0  0  0  0
    6.4729    1.3993   -2.5142 H   0  0  0  0  0  0  0  0  0  0  0  0
    4.6856   -1.8760    0.9553 H   0  0  0  0  0  0  0  0  0  0  0  0
    1.7243    2.3218    0.7605 H   0  0  0  0  0  0  0  0  0  0  0  0
    1.6828    1.5520   -0.8964 H   0  0  0  0  0  0  0  0  0  0  0  0
    0.1678    1.2491    2.3544 H   0  0  0  0  0  0  0  0  0  0  0  0
   -1.0133    1.3695   -0.4778 H   0  0  0  0  0  0  0  0  0  0  0  0
   -0.5254    2.6943    0.6026 H   0  0  0  0  0  0  0  0  0  0  0  0
   -3.7741    0.0034    2.0248 H   0  0  0  0  0  0  0  0  0  0  0  0
   -5.5910   -1.2624    1.2676 H   0  0  0  0  0  0  0  0  0  0  0  0
   -7.1672   -0.6257   -2.6636 H   0  0  0  0  0  0  0  0  0  0  0  0
   -2.5900   -1.8619    1.3134 H   0  0  0  0  0  0  0  0  0  0  0  0
   -0.8558   -1.7470   -0.3840 H   0  0  0  0  0  0  0  0  0  0  0  0
   -2.4069   -1.5989   -0.9618 H   0  0  0  0  0  0  0  0  0  0  0  0
   -0.3905   -1.4213    2.0713 H   0  0  0  0  0  0  0  0  0  0  0  0
   -1.4446   -0.2856    2.9057 H   0  0  0  0  0  0  0  0  0  0  0  0
    1.8220   -1.6769    1.1737 H   0  0  0  0  0  0  0  0  0  0  0  0
    1.8014   -0.5074    2.5761 H   0  0  0  0  0  0  0  0  0  0  0  0
  1  2  1  0
  2  3  2  0
  2  4  2  0
  2  5  1  0
  5  6  1  0
  6  7  2  0
  7  8  1  0
  8  9  2  0
  8 10  1  0
 10 11  1  0
 11 12  1  0
 12 13  1  0
 13 14  1  0
 14 15  1  0
 15 16  1  0
 16 17  2  0
 17 18  1  0
 18 19  1  0
 18 20  2  0
 20 21  1  0
 21 22  1  0
 21 23  2  0
 23 24  1  0
 15 25  1  0
 25 26  1  0
 25 27  1  0
 11 28  1  0
  9  5  1  0
 27 12  1  0
 28  7  1  0
 23 16  1  0
  1 29  1  0
  1 30  1  0
  1 31  1  0
  6 32  1  0
 10 33  1  0
 10 34  1  0
 12 35  1  1
 13 36  1  0
 13 37  1  0
 15 38  1  0
 17 39  1  0
 20 40  1  0
 25 41  1  1
 26 42  1  0
 26 43  1  0
 27 44  1  0
 27 45  1  0
 28 46  1  0
 28 47  1  0
M  END
$$$$
