
     RDKit          3D

 43 43  0  0  0  0  0  0  0  0999 V2000
   -1.6055   -0.5345   -2.4211 C   0  0  0  0  0  0  0  0  0  0  0  0
   -1.5857   -1.0773   -0.9848 C   0  0  0  0  0  0  0  0  0  0  0  0
   -2.6224   -2.1975   -0.7894 C   0  0  0  0  0  0  0  0  0  0  0  0
   -1.6256    0.0411    0.1069 C   0  0  0  0  0  0  0  0  0  0  0  0
   -0.2674    0.6343    0.1555 N   0  0  0  0  0  0  0  0  0  0  0  0
    0.3438    0.5607    1.4881 C   0  0  0  0  0  0  0  0  0  0  0  0
    1.7446    1.1021    1.4420 C   0  0  0  0  0  0  0  0  0  0  0  0
    1.9749    2.2287    1.9597 O   0  0  0  0  0  0  0  0  0  0  0  0
    2.8137    0.3862    0.7920 N   0  0  0  0  0  0  0  0  0  0  0  0
    4.1397    0.9593    0.6234 C   0  0  0  0  0  0  0  0  0  0  0  0
    4.9637   -0.1044   -0.0902 C   0  0  0  0  0  0  0  0  0  0  0  0
    3.9511   -1.0730   -0.6939 C   0  0  0  0  0  0  0  0  0  0  0  0
    2.6781   -0.9084    0.1362 C   0  0  1  0  0  0  0  0  0  0  0  0
    2.5673   -1.9756    1.1440 C   0  0  0  0  0  0  0  0  0  0  0  0
    2.4792   -2.8142    1.9366 N   0  0  0  0  0  0  0  0  0  0  0  0
   -2.7225    1.1540   -0.0792 C   0  0  0  0  0  0  0  0  0  0  0  0
   -2.6815    2.1683    1.0812 C   0  0  0  0  0  0  0  0  0  0  0  0
   -4.1503    0.5880   -0.1720 C   0  0  0  0  0  0  0  0  0  0  0  0
   -0.8259    0.2461   -2.5484 H   0  0  0  0  0  0  0  0  0  0  0  0
   -1.3898   -1.3555   -3.1377 H   0  0  0  0  0  0  0  0  0  0  0  0
   -2.5929   -0.1021   -2.6788 H   0  0  0  0  0  0  0  0  0  0  0  0
   -0.6036   -1.5895   -0.8658 H   0  0  0  0  0  0  0  0  0  0  0  0
   -3.6302   -1.9110   -1.1413 H   0  0  0  0  0  0  0  0  0  0  0  0
   -2.6794   -2.5013    0.2771 H   0  0  0  0  0  0  0  0  0  0  0  0
   -2.3169   -3.0898   -1.3769 H   0  0  0  0  0  0  0  0  0  0  0  0
   -1.8533   -0.4673    1.0733 H   0  0  0  0  0  0  0  0  0  0  0  0
   -0.2459    1.6165   -0.2056 H   0  0  0  0  0  0  0  0  0  0  0  0
    0.3738   -0.4928    1.8375 H   0  0  0  0  0  0  0  0  0  0  0  0
   -0.2568    1.1416    2.2213 H   0  0  0  0  0  0  0  0  0  0  0  0
    4.5855    1.2028    1.6122 H   0  0  0  0  0  0  0  0  0  0  0  0
    4.0724    1.8783    0.0014 H   0  0  0  0  0  0  0  0  0  0  0  0
    5.6147    0.3421   -0.8729 H   0  0  0  0  0  0  0  0  0  0  0  0
    5.5959   -0.6445    0.6485 H   0  0  0  0  0  0  0  0  0  0  0  0
    3.7429   -0.7689   -1.7437 H   0  0  0  0  0  0  0  0  0  0  0  0
    4.3407   -2.1156   -0.7021 H   0  0  0  0  0  0  0  0  0  0  0  0
    1.7899   -0.9248   -0.5293 H   0  0  0  0  0  0  0  0  0  0  0  0
   -2.5182    1.7174   -1.0159 H   0  0  0  0  0  0  0  0  0  0  0  0
   -1.7196    2.7183    1.1073 H   0  0  0  0  0  0  0  0  0  0  0  0
   -2.8320    1.6538    2.0546 H   0  0  0  0  0  0  0  0  0  0  0  0
   -3.4768    2.9344    0.9586 H   0  0  0  0  0  0  0  0  0  0  0  0
   -4.3228   -0.1830    0.6089 H   0  0  0  0  0  0  0  0  0  0  0  0
   -4.3399    0.1660   -1.1769 H   0  0  0  0  0  0  0  0  0  0  0  0
   -4.9070    1.3909   -0.0404 H   0  0  0  0  0  0  0  0  0  0  0  0
  1  2  1  0
  2  3  1  0
  2  4  1  0
  4  5  1  0
  5  6  1  0
  6  7  1  0
  7  8  2  0
  7  9  1  0
  9 10  1  0
 10 11  1  0
 11 12  1  0
 12 13  1  0
 13 14  1  0
 14 15  3  0
  4 16  1  0
 16 17  1  0
 16 18  1  0
 13  9  1  0
  1 19  1  0
  1 20  1  0
  1 21  1  0
  2 22  1  0
  3 23  1  0
  3 24  1  0
  3 25  1  0
  4 26  1  0
  5 27  1  0
  6 28  1  0
  6 29  1  0
 10 30  1  0
 10 31  1  0
 11 32  1  0
 11 33  1  0
 12 34  1  0
 12 35  1  0
 13 36  1  6
 16 37  1  0
 17 38  1  0
 17 39  1  0
 17 40  1  0
 18 41  1  0
 18 42  1  0
 18 43  1  0
M  END
$$$$
