
     RDKit          3D

 55 57  0  0  0  0  0  0  0  0999 V2000
   -4.6245    3.1727    0.6498 N   0  0  0  0  0  0  0  0  0  0  0  0
   -3.7104    2.0781    0.5803 C   0  0  0  0  0  0  0  0  0  0  0  0
   -2.4700    2.3026    0.6157 O   0  0  0  0  0  0  0  0  0  0  0  0
   -4.2184    0.6661    0.4227 C   0  0  0  0  0  0  0  0  0  0  0  0
   -4.0115    0.1887   -1.0324 C   0  0  0  0  0  0  0  0  0  0  0  0
   -3.9118   -1.3370   -1.0955 C   0  0  0  0  0  0  0  0  0  0  0  0
   -2.7536   -1.8610   -0.2116 C   0  0  0  0  0  0  0  0  0  0  0  0
   -2.3273   -0.8852    0.8304 N   0  0  0  0  0  0  0  0  0  0  0  0
   -1.4349   -1.4746    1.8766 C   0  0  1  0  0  0  0  0  0  0  0  0
   -0.3690   -2.4580    1.3210 C   0  0  0  0  0  0  0  0  0  0  0  0
    0.6568   -1.7847    0.3837 C   0  0  0  0  0  0  0  0  0  0  0  0
    0.8930   -0.2820    0.6894 C   0  0  2  0  0  0  0  0  0  0  0  0
    2.2838    0.1998    0.1603 C   0  0  2  0  0  0  0  0  0  0  0  0
    2.5190    1.6180    0.4615 N   0  0  0  0  0  0  0  0  0  0  0  0
    2.4177   -0.0092   -1.3649 C   0  0  0  0  0  0  0  0  0  0  0  0
    3.7658    0.4446   -1.8717 C   0  0  0  0  0  0  0  0  0  0  0  0
    4.8826   -0.3974   -1.7319 C   0  0  0  0  0  0  0  0  0  0  0  0
    6.1421    0.0201   -2.1728 C   0  0  0  0  0  0  0  0  0  0  0  0
    7.2135   -0.7997   -2.0372 F   0  0  0  0  0  0  0  0  0  0  0  0
    6.2982    1.2830   -2.7499 C   0  0  0  0  0  0  0  0  0  0  0  0
    5.1963    2.1315   -2.8842 C   0  0  0  0  0  0  0  0  0  0  0  0
    3.9334    1.7199   -2.4452 C   0  0  0  0  0  0  0  0  0  0  0  0
    2.8799    2.5657   -2.5754 F   0  0  0  0  0  0  0  0  0  0  0  0
    0.7322   -0.0429    2.2046 C   0  0  0  0  0  0  0  0  0  0  0  0
   -0.7021   -0.3535    2.6822 C   0  0  0  0  0  0  0  0  0  0  0  0
   -3.5445   -0.2889    1.4350 C   0  0  0  0  0  0  0  0  0  0  0  0
   -4.2685    4.1493    0.7488 H   0  0  0  0  0  0  0  0  0  0  0  0
   -5.6552    3.0151    0.5967 H   0  0  0  0  0  0  0  0  0  0  0  0
   -5.3100    0.6565    0.6393 H   0  0  0  0  0  0  0  0  0  0  0  0
   -4.8578    0.5349   -1.6648 H   0  0  0  0  0  0  0  0  0  0  0  0
   -3.0748    0.6136   -1.4590 H   0  0  0  0  0  0  0  0  0  0  0  0
   -3.7621   -1.6582   -2.1494 H   0  0  0  0  0  0  0  0  0  0  0  0
   -4.8732   -1.7747   -0.7467 H   0  0  0  0  0  0  0  0  0  0  0  0
   -1.9036   -2.0680   -0.8904 H   0  0  0  0  0  0  0  0  0  0  0  0
   -3.0704   -2.8211    0.2550 H   0  0  0  0  0  0  0  0  0  0  0  0
   -2.0603   -2.0586    2.5914 H   0  0  0  0  0  0  0  0  0  0  0  0
    0.1819   -2.8841    2.1894 H   0  0  0  0  0  0  0  0  0  0  0  0
   -0.8314   -3.3328    0.8186 H   0  0  0  0  0  0  0  0  0  0  0  0
    0.3207   -1.8903   -0.6681 H   0  0  0  0  0  0  0  0  0  0  0  0
    1.6130   -2.3465    0.4713 H   0  0  0  0  0  0  0  0  0  0  0  0
    0.1049    0.3069    0.1668 H   0  0  0  0  0  0  0  0  0  0  0  0
    3.0771   -0.4032    0.6592 H   0  0  0  0  0  0  0  0  0  0  0  0
    2.8308    1.7213    1.4538 H   0  0  0  0  0  0  0  0  0  0  0  0
    1.6402    2.1687    0.3236 H   0  0  0  0  0  0  0  0  0  0  0  0
    2.3028   -1.0838   -1.6192 H   0  0  0  0  0  0  0  0  0  0  0  0
    1.6014    0.5324   -1.8908 H   0  0  0  0  0  0  0  0  0  0  0  0
    4.7756   -1.3759   -1.2798 H   0  0  0  0  0  0  0  0  0  0  0  0
    7.2734    1.6068   -3.0902 H   0  0  0  0  0  0  0  0  0  0  0  0
    5.3224    3.1112   -3.3267 H   0  0  0  0  0  0  0  0  0  0  0  0
    0.9527    1.0116    2.4701 H   0  0  0  0  0  0  0  0  0  0  0  0
    1.4569   -0.6821    2.7565 H   0  0  0  0  0  0  0  0  0  0  0  0
   -1.2641    0.6002    2.6545 H   0  0  0  0  0  0  0  0  0  0  0  0
   -0.6519   -0.6534    3.7518 H   0  0  0  0  0  0  0  0  0  0  0  0
   -3.3445    0.2532    2.3813 H   0  0  0  0  0  0  0  0  0  0  0  0
   -4.2629   -1.0942    1.7164 H   0  0  0  0  0  0  0  0  0  0  0  0
  1  2  1  0
  2  3  2  0
  2  4  1  0
  4  5  1  0
  5  6  1  0
  6  7  1  0
  7  8  1  0
  8  9  1  0
  9 10  1  0
 10 11  1  0
 11 12  1  0
 12 13  1  0
 13 14  1  0
 13 15  1  0
 15 16  1  0
 16 17  2  0
 17 18  1  0
 18 19  1  0
 18 20  2  0
 20 21  1  0
 21 22  2  0
 22 23  1  0
 12 24  1  0
 24 25  1  0
  8 26  1  0
 26  4  1  0
 25  9  1  0
 22 16  1  0
  1 27  1  0
  1 28  1  0
  4 29  1  0
  5 30  1  0
  5 31  1  0
  6 32  1  0
  6 33  1  0
  7 34  1  0
  7 35  1  0
  9 36  1  1
 10 37  1  0
 10 38  1  0
 11 39  1  0
 11 40  1  0
 12 41  1  6
 13 42  1  1
 14 43  1  0
 14 44  1  0
 15 45  1  0
 15 46  1  0
 17 47  1  0
 20 48  1  0
 21 49  1  0
 24 50  1  0
 24 51  1  0
 25 52  1  0
 25 53  1  0
 26 54  1  0
 26 55  1  0
M  END
$$$$
