
     RDKit          3D

 35 36  0  0  0  0  0  0  0  0999 V2000
   -3.7721   -2.3651   -1.2266 N   0  0  0  0  0  0  0  0  0  0  0  0
   -3.2694   -1.6221   -0.4955 C   0  0  0  0  0  0  0  0  0  0  0  0
   -2.6283   -0.6767    0.4345 C   0  0  2  0  0  0  0  0  0  0  0  0
   -3.6756    0.2080    1.1190 C   0  0  0  0  0  0  0  0  0  0  0  0
   -3.1220    1.6294    1.0558 C   0  0  2  0  0  0  0  0  0  0  0  0
   -4.1307    2.5497    0.8245 F   0  0  0  0  0  0  0  0  0  0  0  0
   -2.1095    1.6313   -0.0804 C   0  0  0  0  0  0  0  0  0  0  0  0
   -1.7508    0.2382   -0.2864 N   0  0  0  0  0  0  0  0  0  0  0  0
   -0.5746   -0.1414   -1.0291 C   0  0  0  0  0  0  0  0  0  0  0  0
   -0.0516    0.6948   -1.8163 O   0  0  0  0  0  0  0  0  0  0  0  0
    0.1053   -1.4786   -0.8141 C   0  0  1  0  0  0  0  0  0  0  0  0
    0.8474   -1.8833   -2.0133 N   0  0  0  0  0  0  0  0  0  0  0  0
    1.0028   -1.4697    0.4469 C   0  0  0  0  0  0  0  0  0  0  0  0
    2.0952   -0.4272    0.4095 C   0  0  0  0  0  0  0  0  0  0  0  0
    1.8496    0.8744    0.8799 C   0  0  0  0  0  0  0  0  0  0  0  0
    2.8561    1.8435    0.8313 C   0  0  0  0  0  0  0  0  0  0  0  0
    4.1147    1.5210    0.3169 C   0  0  0  0  0  0  0  0  0  0  0  0
    4.3692    0.2281   -0.1486 C   0  0  0  0  0  0  0  0  0  0  0  0
    3.3652   -0.7441   -0.1023 C   0  0  0  0  0  0  0  0  0  0  0  0
   -2.0481   -1.2359    1.1987 H   0  0  0  0  0  0  0  0  0  0  0  0
   -4.6539    0.1737    0.5870 H   0  0  0  0  0  0  0  0  0  0  0  0
   -3.8364   -0.1075    2.1731 H   0  0  0  0  0  0  0  0  0  0  0  0
   -2.6108    1.8728    2.0134 H   0  0  0  0  0  0  0  0  0  0  0  0
   -2.5550    2.0394   -1.0135 H   0  0  0  0  0  0  0  0  0  0  0  0
   -1.2158    2.2291    0.2030 H   0  0  0  0  0  0  0  0  0  0  0  0
   -0.6765   -2.2475   -0.6484 H   0  0  0  0  0  0  0  0  0  0  0  0
    1.6356   -1.2204   -2.1917 H   0  0  0  0  0  0  0  0  0  0  0  0
    1.2646   -2.8286   -1.8497 H   0  0  0  0  0  0  0  0  0  0  0  0
    1.4532   -2.4776    0.5805 H   0  0  0  0  0  0  0  0  0  0  0  0
    0.3695   -1.3003    1.3445 H   0  0  0  0  0  0  0  0  0  0  0  0
    0.8796    1.1376    1.2828 H   0  0  0  0  0  0  0  0  0  0  0  0
    2.6602    2.8447    1.1928 H   0  0  0  0  0  0  0  0  0  0  0  0
    4.8928    2.2723    0.2798 H   0  0  0  0  0  0  0  0  0  0  0  0
    5.3446   -0.0208   -0.5462 H   0  0  0  0  0  0  0  0  0  0  0  0
    3.5754   -1.7413   -0.4687 H   0  0  0  0  0  0  0  0  0  0  0  0
  1  2  3  0
  2  3  1  0
  3  4  1  0
  4  5  1  0
  5  6  1  0
  5  7  1  0
  7  8  1  0
  8  9  1  0
  9 10  2  0
  9 11  1  0
 11 12  1  0
 11 13  1  0
 13 14  1  0
 14 15  2  0
 15 16  1  0
 16 17  2  0
 17 18  1  0
 18 19  2  0
  8  3  1  0
 19 14  1  0
  3 20  1  1
  4 21  1  0
  4 22  1  0
  5 23  1  1
  7 24  1  0
  7 25  1  0
 11 26  1  1
 12 27  1  0
 12 28  1  0
 13 29  1  0
 13 30  1  0
 15 31  1  0
 16 32  1  0
 17 33  1  0
 18 34  1  0
 19 35  1  0
M  END
$$$$
