
     RDKit          3D

 46 49  0  0  0  0  0  0  0  0999 V2000
   -4.3562    1.9959    3.0364 Cl  0  0  0  0  0  0  0  0  0  0  0  0
   -3.9074    0.8788    1.7606 C   0  0  0  0  0  0  0  0  0  0  0  0
   -4.3878   -0.4317    1.7787 C   0  0  0  0  0  0  0  0  0  0  0  0
   -4.0287   -1.3234    0.7659 C   0  0  0  0  0  0  0  0  0  0  0  0
   -3.1779   -0.9186   -0.2787 C   0  0  0  0  0  0  0  0  0  0  0  0
   -2.7838   -1.9337   -1.3320 C   0  0  0  0  0  0  0  0  0  0  0  0
   -1.9143   -3.0635   -0.7535 C   0  0  0  0  0  0  0  0  0  0  0  0
   -0.7662   -2.5439   -0.0068 N   0  0  0  0  0  0  0  0  0  0  0  0
    0.2205   -1.6471   -0.5469 C   0  0  0  0  0  0  0  0  0  0  0  0
    0.8090   -0.6770    0.2821 C   0  0  0  0  0  0  0  0  0  0  0  0
    1.7425    0.2314   -0.2686 C   0  0  0  0  0  0  0  0  0  0  0  0
    2.3193    1.2705    0.5430 N   0  0  0  0  0  0  0  0  0  0  0  0
    2.9444    0.9455    1.8302 C   0  0  0  0  0  0  0  0  0  0  0  0
    2.7888    2.1242    2.7973 C   0  0  0  0  0  0  0  0  0  0  0  0
    3.2669    3.3753    2.1927 N   0  0  0  0  0  0  0  0  0  0  0  0
    2.5196    3.6821    0.9652 C   0  0  0  0  0  0  0  0  0  0  0  0
    2.6587    2.5586   -0.0690 C   0  0  0  0  0  0  0  0  0  0  0  0
    2.0641    0.1508   -1.5946 N   0  0  0  0  0  0  0  0  0  0  0  0
    1.4909   -0.8104   -2.3562 C   0  0  0  0  0  0  0  0  0  0  0  0
    1.7030   -1.0691   -3.6872 C   0  0  0  0  0  0  0  0  0  0  0  0
    0.8799   -2.1640   -3.9288 C   0  0  0  0  0  0  0  0  0  0  0  0
    0.2248   -2.5197   -2.7978 N   0  0  0  0  0  0  0  0  0  0  0  0
    0.6058   -1.6774   -1.8528 N   0  0  0  0  0  0  0  0  0  0  0  0
   -2.7092    0.4178   -0.3010 C   0  0  0  0  0  0  0  0  0  0  0  0
   -1.6867    1.0434   -1.5920 Cl  0  0  0  0  0  0  0  0  0  0  0  0
   -3.0743    1.3016    0.7221 C   0  0  0  0  0  0  0  0  0  0  0  0
   -5.0386   -0.7618    2.5784 H   0  0  0  0  0  0  0  0  0  0  0  0
   -4.4117   -2.3358    0.7992 H   0  0  0  0  0  0  0  0  0  0  0  0
   -3.7077   -2.3815   -1.7578 H   0  0  0  0  0  0  0  0  0  0  0  0
   -2.2533   -1.4641   -2.1831 H   0  0  0  0  0  0  0  0  0  0  0  0
   -1.5739   -3.7413   -1.5621 H   0  0  0  0  0  0  0  0  0  0  0  0
   -2.5363   -3.6834   -0.0719 H   0  0  0  0  0  0  0  0  0  0  0  0
   -0.7624   -2.7072    1.0258 H   0  0  0  0  0  0  0  0  0  0  0  0
    0.5051   -0.5974    1.3178 H   0  0  0  0  0  0  0  0  0  0  0  0
    4.0242    0.7371    1.6682 H   0  0  0  0  0  0  0  0  0  0  0  0
    2.4900    0.0429    2.2888 H   0  0  0  0  0  0  0  0  0  0  0  0
    1.7208    2.2309    3.0902 H   0  0  0  0  0  0  0  0  0  0  0  0
    3.3706    1.9186    3.7215 H   0  0  0  0  0  0  0  0  0  0  0  0
    4.2825    3.2734    1.9565 H   0  0  0  0  0  0  0  0  0  0  0  0
    1.4451    3.8372    1.2083 H   0  0  0  0  0  0  0  0  0  0  0  0
    2.9039    4.6295    0.5297 H   0  0  0  0  0  0  0  0  0  0  0  0
    3.7026    2.5229   -0.4495 H   0  0  0  0  0  0  0  0  0  0  0  0
    1.9787    2.7763   -0.9218 H   0  0  0  0  0  0  0  0  0  0  0  0
    2.3574   -0.5545   -4.3780 H   0  0  0  0  0  0  0  0  0  0  0  0
    0.7699   -2.6735   -4.8765 H   0  0  0  0  0  0  0  0  0  0  0  0
   -2.7124    2.3222    0.7079 H   0  0  0  0  0  0  0  0  0  0  0  0
  1  2  1  0
  2  3  2  0
  3  4  1  0
  4  5  2  0
  5  6  1  0
  6  7  1  0
  7  8  1  0
  8  9  1  0
  9 10  2  0
 10 11  1  0
 11 12  1  0
 12 13  1  0
 13 14  1  0
 14 15  1  0
 15 16  1  0
 16 17  1  0
 11 18  2  0
 18 19  1  0
 19 20  2  0
 20 21  1  0
 21 22  2  0
 22 23  1  0
  5 24  1  0
 24 25  1  0
 24 26  2  0
 26  2  1  0
 23  9  1  0
 17 12  1  0
 23 19  1  0
  3 27  1  0
  4 28  1  0
  6 29  1  0
  6 30  1  0
  7 31  1  0
  7 32  1  0
  8 33  1  0
 10 34  1  0
 13 35  1  0
 13 36  1  0
 14 37  1  0
 14 38  1  0
 15 39  1  0
 16 40  1  0
 16 41  1  0
 17 42  1  0
 17 43  1  0
 20 44  1  0
 21 45  1  0
 26 46  1  0
M  END
$$$$
