
     RDKit          3D

 44 46  0  0  0  0  0  0  0  0999 V2000
    5.1255   -2.4841   -1.0004 N   0  0  0  0  0  0  0  0  0  0  0  0
    4.7325   -1.4601   -0.6315 C   0  0  0  0  0  0  0  0  0  0  0  0
    4.2315   -0.1574   -0.1625 C   0  0  2  0  0  0  0  0  0  0  0  0
    4.8742    0.2362    1.1698 C   0  0  0  0  0  0  0  0  0  0  0  0
    3.7396    0.8059    2.0153 C   0  0  0  0  0  0  0  0  0  0  0  0
    2.4588    0.1948    1.4491 C   0  0  2  0  0  0  0  0  0  0  0  0
    2.0388   -0.9735    2.2401 C   0  0  0  0  0  0  0  0  0  0  0  0
    1.7075   -1.8923    2.8608 N   0  0  0  0  0  0  0  0  0  0  0  0
    2.7968   -0.2195    0.0924 N   0  0  0  0  0  0  0  0  0  0  0  0
    1.8250   -0.4211   -0.9558 C   0  0  0  0  0  0  0  0  0  0  0  0
    2.2155   -0.5532   -2.1485 O   0  0  0  0  0  0  0  0  0  0  0  0
    0.3487   -0.4153   -0.6581 C   0  0  0  0  0  0  0  0  0  0  0  0
   -0.4167   -0.9836   -1.7854 N   0  0  0  0  0  0  0  0  0  0  0  0
   -1.8976   -0.9100   -1.6580 C   0  0  0  0  0  0  0  0  0  0  0  0
   -2.5256   -1.5631   -2.9134 C   0  0  0  0  0  0  0  0  0  0  0  0
   -2.0235   -0.9787   -4.0868 O   0  0  0  0  0  0  0  0  0  0  0  0
   -2.4029   -1.6377   -0.3723 C   0  0  0  0  0  0  0  0  0  0  0  0
   -2.7011   -0.5241    0.5602 C   0  0  0  0  0  0  0  0  0  0  0  0
   -2.9864   -0.6260    1.9237 C   0  0  0  0  0  0  0  0  0  0  0  0
   -3.2598    0.5466    2.6446 C   0  0  0  0  0  0  0  0  0  0  0  0
   -3.2521    1.7943    1.9947 C   0  0  0  0  0  0  0  0  0  0  0  0
   -2.9706    1.8731    0.6220 C   0  0  0  0  0  0  0  0  0  0  0  0
   -2.6932    0.6947   -0.0746 C   0  0  0  0  0  0  0  0  0  0  0  0
   -2.3842    0.5664   -1.5197 C   0  0  0  0  0  0  0  0  0  0  0  0
    4.4404    0.6202   -0.9293 H   0  0  0  0  0  0  0  0  0  0  0  0
    5.6800    0.9879    1.0221 H   0  0  0  0  0  0  0  0  0  0  0  0
    5.3002   -0.6483    1.6962 H   0  0  0  0  0  0  0  0  0  0  0  0
    3.7071    1.9096    1.8788 H   0  0  0  0  0  0  0  0  0  0  0  0
    3.8883    0.5911    3.0974 H   0  0  0  0  0  0  0  0  0  0  0  0
    1.6483    0.9555    1.4426 H   0  0  0  0  0  0  0  0  0  0  0  0
    0.1698   -1.0045    0.2631 H   0  0  0  0  0  0  0  0  0  0  0  0
    0.0599    0.6374   -0.4699 H   0  0  0  0  0  0  0  0  0  0  0  0
   -0.1424   -1.9912   -1.8771 H   0  0  0  0  0  0  0  0  0  0  0  0
   -3.6383   -1.4931   -2.8865 H   0  0  0  0  0  0  0  0  0  0  0  0
   -2.2716   -2.6449   -2.9305 H   0  0  0  0  0  0  0  0  0  0  0  0
   -2.5689   -0.1685   -4.2624 H   0  0  0  0  0  0  0  0  0  0  0  0
   -1.6556   -2.3407    0.0524 H   0  0  0  0  0  0  0  0  0  0  0  0
   -3.3465   -2.1968   -0.5560 H   0  0  0  0  0  0  0  0  0  0  0  0
   -2.9951   -1.5896    2.4164 H   0  0  0  0  0  0  0  0  0  0  0  0
   -3.4799    0.4904    3.7027 H   0  0  0  0  0  0  0  0  0  0  0  0
   -3.4663    2.6956    2.5541 H   0  0  0  0  0  0  0  0  0  0  0  0
   -2.9667    2.8294    0.1150 H   0  0  0  0  0  0  0  0  0  0  0  0
   -3.3221    0.7529   -2.0869 H   0  0  0  0  0  0  0  0  0  0  0  0
   -1.6210    1.3037   -1.8478 H   0  0  0  0  0  0  0  0  0  0  0  0
  1  2  3  0
  2  3  1  0
  3  4  1  0
  4  5  1  0
  5  6  1  0
  6  7  1  0
  7  8  3  0
  6  9  1  0
  9 10  1  0
 10 11  2  0
 10 12  1  0
 12 13  1  0
 13 14  1  0
 14 15  1  0
 15 16  1  0
 14 17  1  0
 17 18  1  0
 18 19  2  0
 19 20  1  0
 20 21  2  0
 21 22  1  0
 22 23  2  0
 23 24  1  0
  9  3  1  0
 24 14  1  0
 23 18  1  0
  3 25  1  6
  4 26  1  0
  4 27  1  0
  5 28  1  0
  5 29  1  0
  6 30  1  6
 12 31  1  0
 12 32  1  0
 13 33  1  0
 15 34  1  0
 15 35  1  0
 16 36  1  0
 17 37  1  0
 17 38  1  0
 19 39  1  0
 20 40  1  0
 21 41  1  0
 22 42  1  0
 24 43  1  0
 24 44  1  0
M  END
$$$$
