
     RDKit          3D

 37 38  0  0  0  0  0  0  0  0999 V2000
    1.6433    0.4896    3.0894 F   0  0  0  0  0  0  0  0  0  0  0  0
    1.3660    0.2064    1.7874 C   0  0  0  0  0  0  0  0  0  0  0  0
   -0.0775    0.1609    1.3628 C   0  0  0  0  0  0  0  0  0  0  0  0
   -0.3544    1.2669    0.4315 N   0  0  0  0  0  0  0  0  0  0  0  0
   -1.6120    1.1434   -0.3360 C   0  0  0  0  0  0  0  0  0  0  0  0
   -2.8706    0.9175    0.5521 C   0  0  0  0  0  0  0  0  0  0  0  0
   -3.3810   -0.5276    0.4847 C   0  0  0  0  0  0  0  0  0  0  0  0
   -3.7238   -0.9532   -0.9580 C   0  0  0  0  0  0  0  0  0  0  0  0
   -2.8525   -0.2711   -2.0334 C   0  0  0  0  0  0  0  0  0  0  0  0
   -1.4752    0.1189   -1.4893 C   0  0  0  0  0  0  0  0  0  0  0  0
    2.3816   -0.0340    0.9331 C   0  0  0  0  0  0  0  0  0  0  0  0
    3.8125    0.0174    1.3455 C   0  0  0  0  0  0  0  0  0  0  0  0
    4.5910   -0.1215    0.0429 C   0  0  0  0  0  0  0  0  0  0  0  0
    3.6288   -0.7258   -0.9792 C   0  0  0  0  0  0  0  0  0  0  0  0
    2.2206   -0.3789   -0.5113 C   0  0  0  0  0  0  0  0  0  0  0  0
   -0.7129    0.2530    2.2696 H   0  0  0  0  0  0  0  0  0  0  0  0
   -0.2790   -0.8294    0.9105 H   0  0  0  0  0  0  0  0  0  0  0  0
   -0.3923    2.1554    0.9855 H   0  0  0  0  0  0  0  0  0  0  0  0
   -1.7710    2.1269   -0.8356 H   0  0  0  0  0  0  0  0  0  0  0  0
   -2.6814    1.2070    1.6067 H   0  0  0  0  0  0  0  0  0  0  0  0
   -3.6889    1.5819    0.1948 H   0  0  0  0  0  0  0  0  0  0  0  0
   -4.2852   -0.6297    1.1230 H   0  0  0  0  0  0  0  0  0  0  0  0
   -2.6104   -1.2114    0.8983 H   0  0  0  0  0  0  0  0  0  0  0  0
   -3.6084   -2.0562   -1.0371 H   0  0  0  0  0  0  0  0  0  0  0  0
   -4.7907   -0.7194   -1.1659 H   0  0  0  0  0  0  0  0  0  0  0  0
   -2.7296   -0.9557   -2.9005 H   0  0  0  0  0  0  0  0  0  0  0  0
   -3.3670    0.6442   -2.4010 H   0  0  0  0  0  0  0  0  0  0  0  0
   -0.9558   -0.8050   -1.1659 H   0  0  0  0  0  0  0  0  0  0  0  0
   -0.8682    0.5645   -2.3073 H   0  0  0  0  0  0  0  0  0  0  0  0
    4.0362   -0.8301    2.0291 H   0  0  0  0  0  0  0  0  0  0  0  0
    4.0512    0.9831    1.8423 H   0  0  0  0  0  0  0  0  0  0  0  0
    5.4901   -0.7613    0.1769 H   0  0  0  0  0  0  0  0  0  0  0  0
    4.9125    0.8848   -0.3062 H   0  0  0  0  0  0  0  0  0  0  0  0
    3.8239   -0.3291   -1.9992 H   0  0  0  0  0  0  0  0  0  0  0  0
    3.7541   -1.8313   -0.9920 H   0  0  0  0  0  0  0  0  0  0  0  0
    1.8312    0.4995   -1.0695 H   0  0  0  0  0  0  0  0  0  0  0  0
    1.5450   -1.2508   -0.6453 H   0  0  0  0  0  0  0  0  0  0  0  0
  1  2  1  0
  2  3  1  0
  3  4  1  0
  4  5  1  0
  5  6  1  0
  6  7  1  0
  7  8  1  0
  8  9  1  0
  9 10  1  0
  2 11  2  3
 11 12  1  0
 12 13  1  0
 13 14  1  0
 14 15  1  0
 10  5  1  0
 15 11  1  0
  3 16  1  0
  3 17  1  0
  4 18  1  0
  5 19  1  0
  6 20  1  0
  6 21  1  0
  7 22  1  0
  7 23  1  0
  8 24  1  0
  8 25  1  0
  9 26  1  0
  9 27  1  0
 10 28  1  0
 10 29  1  0
 12 30  1  0
 12 31  1  0
 13 32  1  0
 13 33  1  0
 14 34  1  0
 14 35  1  0
 15 36  1  0
 15 37  1  0
M  END
$$$$
