
     RDKit          3D

 35 36  0  0  0  0  0  0  0  0999 V2000
   -0.9111    1.0966    3.4494 N   0  0  0  0  0  0  0  0  0  0  0  0
   -1.1101    1.1046    1.9976 C   0  0  1  0  0  0  0  0  0  0  0  0
    0.2199    1.4371    1.2754 C   0  0  0  0  0  0  0  0  0  0  0  0
    1.2476    0.3305    1.3592 C   0  0  0  0  0  0  0  0  0  0  0  0
    1.4818   -0.1910    2.4839 O   0  0  0  0  0  0  0  0  0  0  0  0
    2.0001   -0.1081    0.2071 N   0  0  0  0  0  0  0  0  0  0  0  0
    2.9123   -1.2404    0.2966 C   0  0  0  0  0  0  0  0  0  0  0  0
    3.8150   -1.2187   -0.9244 C   0  0  0  0  0  0  0  0  0  0  0  0
    2.9166   -0.4160   -2.2780 S   0  0  0  0  0  0  0  0  0  0  0  0
    1.9298    0.5446   -1.0956 C   0  0  0  0  0  0  0  0  0  0  0  0
   -1.7315   -0.2408    1.5499 C   0  0  0  0  0  0  0  0  0  0  0  0
   -1.8997   -0.3451    0.0537 C   0  0  0  0  0  0  0  0  0  0  0  0
   -1.1438   -1.2716   -0.6823 C   0  0  0  0  0  0  0  0  0  0  0  0
   -1.2845   -1.3531   -2.0695 C   0  0  0  0  0  0  0  0  0  0  0  0
   -2.1830   -0.5152   -2.7381 C   0  0  0  0  0  0  0  0  0  0  0  0
   -2.3249   -0.6410   -4.4860 Cl  0  0  0  0  0  0  0  0  0  0  0  0
   -2.9517    0.4073   -2.0083 C   0  0  0  0  0  0  0  0  0  0  0  0
   -4.0951    1.4763   -2.8094 Cl  0  0  0  0  0  0  0  0  0  0  0  0
   -2.8101    0.4864   -0.6177 C   0  0  0  0  0  0  0  0  0  0  0  0
   -1.8391    0.9532    3.9107 H   0  0  0  0  0  0  0  0  0  0  0  0
   -0.5903    2.0472    3.7460 H   0  0  0  0  0  0  0  0  0  0  0  0
   -1.8327    1.9163    1.7514 H   0  0  0  0  0  0  0  0  0  0  0  0
   -0.0174    1.6916    0.2249 H   0  0  0  0  0  0  0  0  0  0  0  0
    0.6616    2.3556    1.7176 H   0  0  0  0  0  0  0  0  0  0  0  0
    3.5352   -1.1715    1.2151 H   0  0  0  0  0  0  0  0  0  0  0  0
    2.3230   -2.1825    0.3228 H   0  0  0  0  0  0  0  0  0  0  0  0
    4.1110   -2.2485   -1.2159 H   0  0  0  0  0  0  0  0  0  0  0  0
    4.7281   -0.6237   -0.7078 H   0  0  0  0  0  0  0  0  0  0  0  0
    2.3309    1.5773   -1.0234 H   0  0  0  0  0  0  0  0  0  0  0  0
    0.8870    0.5651   -1.4695 H   0  0  0  0  0  0  0  0  0  0  0  0
   -1.1127   -1.0824    1.9314 H   0  0  0  0  0  0  0  0  0  0  0  0
   -2.7328   -0.3506    2.0205 H   0  0  0  0  0  0  0  0  0  0  0  0
   -0.4357   -1.9231   -0.1855 H   0  0  0  0  0  0  0  0  0  0  0  0
   -0.6878   -2.0651   -2.6255 H   0  0  0  0  0  0  0  0  0  0  0  0
   -3.4057    1.1989   -0.0604 H   0  0  0  0  0  0  0  0  0  0  0  0
  1  2  1  0
  2  3  1  0
  3  4  1  0
  4  5  2  0
  4  6  1  0
  6  7  1  0
  7  8  1  0
  8  9  1  0
  9 10  1  0
  2 11  1  0
 11 12  1  0
 12 13  2  0
 13 14  1  0
 14 15  2  0
 15 16  1  0
 15 17  1  0
 17 18  1  0
 17 19  2  0
 10  6  1  0
 19 12  1  0
  1 20  1  0
  1 21  1  0
  2 22  1  1
  3 23  1  0
  3 24  1  0
  7 25  1  0
  7 26  1  0
  8 27  1  0
  8 28  1  0
 10 29  1  0
 10 30  1  0
 11 31  1  0
 11 32  1  0
 13 33  1  0
 14 34  1  0
 19 35  1  0
M  END
$$$$
