
     RDKit          3D

 65 69  0  0  0  0  0  0  0  0999 V2000
    0.4519    2.9790    2.6772 C   0  0  0  0  0  0  0  0  0  0  0  0
   -0.3682    2.6775    1.5045 C   0  0  0  0  0  0  0  0  0  0  0  0
   -1.0389    2.4239    0.5359 C   0  0  0  0  0  0  0  0  0  0  0  0
   -1.8417    2.1017   -0.6486 C   0  0  0  0  0  0  0  0  0  0  0  0
   -1.6691    0.6884   -0.9990 N   0  0  0  0  0  0  0  0  0  0  0  0
   -2.5309   -0.3192   -0.7148 C   0  0  0  0  0  0  0  0  0  0  0  0
   -3.7954   -0.1306   -0.0652 N   0  0  0  0  0  0  0  0  0  0  0  0
   -4.9364    0.3467   -0.8623 C   0  0  0  0  0  0  0  0  0  0  0  0
   -6.1690   -0.5798   -0.7714 C   0  0  0  0  0  0  0  0  0  0  0  0
   -6.1300   -1.6217    0.3590 C   0  0  0  0  0  0  0  0  0  0  0  0
   -6.2179   -1.0281    1.7033 N   0  0  0  0  0  0  0  0  0  0  0  0
   -5.2304    0.0272    1.9973 C   0  0  0  0  0  0  0  0  0  0  0  0
   -3.8329   -0.2345    1.4027 C   0  0  0  0  0  0  0  0  0  0  0  0
   -1.9958   -1.5509   -1.0650 C   0  0  0  0  0  0  0  0  0  0  0  0
   -2.6207   -2.8309   -0.8528 C   0  0  0  0  0  0  0  0  0  0  0  0
   -3.1225   -3.8596   -0.6820 N   0  0  0  0  0  0  0  0  0  0  0  0
   -0.7365   -1.2699   -1.5852 C   0  0  0  0  0  0  0  0  0  0  0  0
   -0.5739    0.0877   -1.5267 C   0  0  0  0  0  0  0  0  0  0  0  0
    0.6322    0.6574   -1.9254 C   0  0  0  0  0  0  0  0  0  0  0  0
    0.8004    1.9063   -1.8674 O   0  0  0  0  0  0  0  0  0  0  0  0
    1.6377   -0.1676   -2.3710 N   0  0  0  0  0  0  0  0  0  0  0  0
    2.9501    0.4109   -2.7206 C   0  0  0  0  0  0  0  0  0  0  0  0
    3.7968    0.5247   -1.4915 C   0  0  0  0  0  0  0  0  0  0  0  0
    3.6286    1.5772   -0.6492 N   0  0  0  0  0  0  0  0  0  0  0  0
    4.3334    1.6897    0.5080 C   0  0  0  0  0  0  0  0  0  0  0  0
    4.0848    2.8844    1.3820 C   0  0  0  0  0  0  0  0  0  0  0  0
    5.2620    0.6829    0.8504 C   0  0  0  0  0  0  0  0  0  0  0  0
    6.0341    0.7194    2.0286 C   0  0  0  0  0  0  0  0  0  0  0  0
    6.9327   -0.3139    2.3118 C   0  0  0  0  0  0  0  0  0  0  0  0
    7.0708   -1.3889    1.4301 C   0  0  0  0  0  0  0  0  0  0  0  0
    6.3115   -1.4373    0.2586 C   0  0  0  0  0  0  0  0  0  0  0  0
    5.4102   -0.4082   -0.0366 C   0  0  0  0  0  0  0  0  0  0  0  0
    4.6734   -0.4626   -1.1755 N   0  0  0  0  0  0  0  0  0  0  0  0
    1.4530   -1.5385   -2.4088 C   0  0  0  0  0  0  0  0  0  0  0  0
    2.4029   -2.2828   -2.7840 O   0  0  0  0  0  0  0  0  0  0  0  0
    0.2513   -2.1030   -2.0324 N   0  0  0  0  0  0  0  0  0  0  0  0
    0.0454   -3.5594   -2.0801 C   0  0  0  0  0  0  0  0  0  0  0  0
   -0.2055    3.1554    3.5532 H   0  0  0  0  0  0  0  0  0  0  0  0
    1.1251    2.1223    2.8865 H   0  0  0  0  0  0  0  0  0  0  0  0
    1.0590    3.8866    2.4810 H   0  0  0  0  0  0  0  0  0  0  0  0
   -2.9049    2.3270   -0.4292 H   0  0  0  0  0  0  0  0  0  0  0  0
   -1.5372    2.7473   -1.4977 H   0  0  0  0  0  0  0  0  0  0  0  0
   -4.6438    0.4401   -1.9323 H   0  0  0  0  0  0  0  0  0  0  0  0
   -5.2088    1.3729   -0.5368 H   0  0  0  0  0  0  0  0  0  0  0  0
   -7.0875    0.0377   -0.6667 H   0  0  0  0  0  0  0  0  0  0  0  0
   -6.2613   -1.1332   -1.7317 H   0  0  0  0  0  0  0  0  0  0  0  0
   -7.0046   -2.2945    0.2258 H   0  0  0  0  0  0  0  0  0  0  0  0
   -5.2318   -2.2685    0.2692 H   0  0  0  0  0  0  0  0  0  0  0  0
   -6.0809   -1.8026    2.3947 H   0  0  0  0  0  0  0  0  0  0  0  0
   -5.6246    1.0097    1.6661 H   0  0  0  0  0  0  0  0  0  0  0  0
   -5.1217    0.1128    3.1012 H   0  0  0  0  0  0  0  0  0  0  0  0
   -3.4886   -1.2447    1.7136 H   0  0  0  0  0  0  0  0  0  0  0  0
   -3.1252    0.5076    1.8320 H   0  0  0  0  0  0  0  0  0  0  0  0
    2.8303    1.4142   -3.1849 H   0  0  0  0  0  0  0  0  0  0  0  0
    3.4713   -0.2053   -3.4854 H   0  0  0  0  0  0  0  0  0  0  0  0
    5.0191    3.4739    1.4916 H   0  0  0  0  0  0  0  0  0  0  0  0
    3.3075    3.5399    0.9346 H   0  0  0  0  0  0  0  0  0  0  0  0
    3.7299    2.5555    2.3812 H   0  0  0  0  0  0  0  0  0  0  0  0
    5.9507    1.5367    2.7326 H   0  0  0  0  0  0  0  0  0  0  0  0
    7.5235   -0.2816    3.2181 H   0  0  0  0  0  0  0  0  0  0  0  0
    7.7674   -2.1860    1.6555 H   0  0  0  0  0  0  0  0  0  0  0  0
    6.4249   -2.2749   -0.4186 H   0  0  0  0  0  0  0  0  0  0  0  0
    0.8923   -4.0949   -2.5564 H   0  0  0  0  0  0  0  0  0  0  0  0
   -0.8580   -3.7942   -2.6815 H   0  0  0  0  0  0  0  0  0  0  0  0
   -0.0698   -3.9567   -1.0496 H   0  0  0  0  0  0  0  0  0  0  0  0
  1  2  1  0
  2  3  3  0
  3  4  1  0
  4  5  1  0
  5  6  1  0
  6  7  1  0
  7  8  1  0
  8  9  1  0
  9 10  1  0
 10 11  1  0
 11 12  1  0
 12 13  1  0
  6 14  2  0
 14 15  1  0
 15 16  3  0
 14 17  1  0
 17 18  2  0
 18 19  1  0
 19 20  2  0
 19 21  1  0
 21 22  1  0
 22 23  1  0
 23 24  2  0
 24 25  1  0
 25 26  1  0
 25 27  2  0
 27 28  1  0
 28 29  2  0
 29 30  1  0
 30 31  2  0
 31 32  1  0
 32 33  2  0
 21 34  1  0
 34 35  2  0
 34 36  1  0
 36 37  1  0
 18  5  1  0
 33 23  1  0
 13  7  1  0
 36 17  1  0
 32 27  1  0
  1 38  1  0
  1 39  1  0
  1 40  1  0
  4 41  1  0
  4 42  1  0
  8 43  1  0
  8 44  1  0
  9 45  1  0
  9 46  1  0
 10 47  1  0
 10 48  1  0
 11 49  1  0
 12 50  1  0
 12 51  1  0
 13 52  1  0
 13 53  1  0
 22 54  1  0
 22 55  1  0
 26 56  1  0
 26 57  1  0
 26 58  1  0
 28 59  1  0
 29 60  1  0
 30 61  1  0
 31 62  1  0
 37 63  1  0
 37 64  1  0
 37 65  1  0
M  END
$$$$
