
     RDKit          3D

 52 55  0  0  0  0  0  0  0  0999 V2000
    2.8898    4.8023   -0.0197 C   0  0  0  0  0  0  0  0  0  0  0  0
    2.2368    3.5018   -0.1300 N   0  0  0  0  0  0  0  0  0  0  0  0
    2.7376    2.3666   -0.6685 C   0  0  0  0  0  0  0  0  0  0  0  0
    3.9253    2.2697   -1.0823 O   0  0  0  0  0  0  0  0  0  0  0  0
    1.8236    1.3597   -0.7654 N   0  0  0  0  0  0  0  0  0  0  0  0
    2.0160    0.1349   -1.5551 C   0  0  0  0  0  0  0  0  0  0  0  0
    1.9534   -1.1449   -0.7459 C   0  0  0  0  0  0  0  0  0  0  0  0
    1.3886   -2.2768   -1.3667 C   0  0  0  0  0  0  0  0  0  0  0  0
    1.3591   -3.5117   -0.7164 C   0  0  0  0  0  0  0  0  0  0  0  0
    1.9108   -3.6440    0.5562 C   0  0  0  0  0  0  0  0  0  0  0  0
    2.5131   -2.5473    1.1735 C   0  0  0  0  0  0  0  0  0  0  0  0
    2.5599   -1.3022    0.5285 C   0  0  0  0  0  0  0  0  0  0  0  0
    3.2515   -0.2286    1.1980 C   0  0  0  0  0  0  0  0  0  0  0  0
    3.8094    0.6247    1.7460 N   0  0  0  0  0  0  0  0  0  0  0  0
    0.6752    1.9201   -0.2979 C   0  0  0  0  0  0  0  0  0  0  0  0
   -0.6445    1.4306   -0.2352 C   0  0  0  0  0  0  0  0  0  0  0  0
   -0.9759    0.0438   -0.4016 N   0  0  0  0  0  0  0  0  0  0  0  0
   -1.6847   -0.3423   -1.6344 C   0  0  0  0  0  0  0  0  0  0  0  0
   -2.4173   -1.6893   -1.5551 C   0  0  0  0  0  0  0  0  0  0  0  0
   -3.5756   -1.6711   -0.5463 C   0  0  0  0  0  0  0  0  0  0  0  0
   -3.1327   -2.0117    0.8814 C   0  0  0  0  0  0  0  0  0  0  0  0
   -2.2383   -0.9325    1.5230 C   0  0  0  0  0  0  0  0  0  0  0  0
   -2.0020   -1.2789    2.9273 N   0  0  0  0  0  0  0  0  0  0  0  0
   -0.8855   -0.8183    0.7892 C   0  0  0  0  0  0  0  0  0  0  0  0
   -1.6498    2.3397    0.1585 C   0  0  0  0  0  0  0  0  0  0  0  0
   -1.3184    3.6678    0.4917 C   0  0  0  0  0  0  0  0  0  0  0  0
   -0.0241    4.0917    0.4395 N   0  0  0  0  0  0  0  0  0  0  0  0
    0.9409    3.2173    0.0630 C   0  0  0  0  0  0  0  0  0  0  0  0
    3.9709    4.6697    0.1966 H   0  0  0  0  0  0  0  0  0  0  0  0
    2.4358    5.3889    0.8068 H   0  0  0  0  0  0  0  0  0  0  0  0
    2.7719    5.3596   -0.9724 H   0  0  0  0  0  0  0  0  0  0  0  0
    1.2695    0.1282   -2.3751 H   0  0  0  0  0  0  0  0  0  0  0  0
    3.0073    0.1540   -2.0562 H   0  0  0  0  0  0  0  0  0  0  0  0
    0.9612   -2.2041   -2.3592 H   0  0  0  0  0  0  0  0  0  0  0  0
    0.9058   -4.3670   -1.2006 H   0  0  0  0  0  0  0  0  0  0  0  0
    1.8839   -4.6014    1.0602 H   0  0  0  0  0  0  0  0  0  0  0  0
    2.9576   -2.6747    2.1537 H   0  0  0  0  0  0  0  0  0  0  0  0
   -2.4257    0.4431   -1.9025 H   0  0  0  0  0  0  0  0  0  0  0  0
   -0.9569   -0.3912   -2.4687 H   0  0  0  0  0  0  0  0  0  0  0  0
   -2.8446   -1.8914   -2.5615 H   0  0  0  0  0  0  0  0  0  0  0  0
   -1.7083   -2.5187   -1.3465 H   0  0  0  0  0  0  0  0  0  0  0  0
   -4.1023   -0.6916   -0.5623 H   0  0  0  0  0  0  0  0  0  0  0  0
   -4.3156   -2.4401   -0.8588 H   0  0  0  0  0  0  0  0  0  0  0  0
   -2.6153   -2.9967    0.8931 H   0  0  0  0  0  0  0  0  0  0  0  0
   -4.0527   -2.1231    1.4962 H   0  0  0  0  0  0  0  0  0  0  0  0
   -2.7697    0.0434    1.4890 H   0  0  0  0  0  0  0  0  0  0  0  0
   -1.4768   -0.4943    3.3783 H   0  0  0  0  0  0  0  0  0  0  0  0
   -2.9233   -1.3159    3.4218 H   0  0  0  0  0  0  0  0  0  0  0  0
   -0.5188   -1.8254    0.5159 H   0  0  0  0  0  0  0  0  0  0  0  0
   -0.1194   -0.3997    1.4797 H   0  0  0  0  0  0  0  0  0  0  0  0
   -2.6815    2.0202    0.2223 H   0  0  0  0  0  0  0  0  0  0  0  0
   -2.0952    4.3569    0.7951 H   0  0  0  0  0  0  0  0  0  0  0  0
  1  2  1  0
  2  3  1  0
  3  4  2  0
  3  5  1  0
  5  6  1  0
  6  7  1  0
  7  8  2  0
  8  9  1  0
  9 10  2  0
 10 11  1  0
 11 12  2  0
 12 13  1  0
 13 14  3  0
  5 15  1  0
 15 16  2  0
 16 17  1  0
 17 18  1  0
 18 19  1  0
 19 20  1  0
 20 21  1  0
 21 22  1  0
 22 23  1  0
 22 24  1  0
 16 25  1  0
 25 26  2  0
 26 27  1  0
 27 28  2  0
 28  2  1  0
 12  7  1  0
 28 15  1  0
 24 17  1  0
  1 29  1  0
  1 30  1  0
  1 31  1  0
  6 32  1  0
  6 33  1  0
  8 34  1  0
  9 35  1  0
 10 36  1  0
 11 37  1  0
 18 38  1  0
 18 39  1  0
 19 40  1  0
 19 41  1  0
 20 42  1  0
 20 43  1  0
 21 44  1  0
 21 45  1  0
 22 46  1  0
 23 47  1  0
 23 48  1  0
 24 49  1  0
 24 50  1  0
 25 51  1  0
 26 52  1  0
M  END
$$$$
