
     RDKit          3D

 45 48  0  0  0  0  0  0  0  0999 V2000
   -5.4153    2.9439    1.2931 N   0  0  0  0  0  0  0  0  0  0  0  0
   -5.3081    1.8724    0.8697 C   0  0  0  0  0  0  0  0  0  0  0  0
   -5.1737    0.5418    0.3441 C   0  0  0  0  0  0  0  0  0  0  0  0
   -5.6071    0.1744   -0.8809 N   0  0  0  0  0  0  0  0  0  0  0  0
   -5.0850   -1.0158   -1.1446 N   0  0  0  0  0  0  0  0  0  0  0  0
   -4.3413   -1.4022   -0.0931 C   0  0  0  0  0  0  0  0  0  0  0  0
   -4.3701   -0.4565    0.8581 C   0  0  0  0  0  0  0  0  0  0  0  0
   -3.0752   -0.3834    1.5673 C   0  0  0  0  0  0  0  0  0  0  0  0
   -2.1905   -1.3430    0.8503 N   0  0  0  0  0  0  0  0  0  0  0  0
   -0.9788   -0.7322    0.2384 C   0  0  1  0  0  0  0  0  0  0  0  0
   -1.3138    0.3320   -0.8533 C   0  0  0  0  0  0  0  0  0  0  0  0
   -0.1635    1.2910   -1.1704 C   0  0  0  0  0  0  0  0  0  0  0  0
    1.0594    0.5863   -1.2869 O   0  0  0  0  0  0  0  0  0  0  0  0
    1.8681    0.7263   -0.1281 C   0  0  2  0  0  0  0  0  0  0  0  0
    3.3156    0.5038   -0.5282 C   0  0  0  0  0  0  0  0  0  0  0  0
    4.3166    1.3767   -0.0607 C   0  0  0  0  0  0  0  0  0  0  0  0
    5.6563    1.1688   -0.4023 C   0  0  0  0  0  0  0  0  0  0  0  0
    6.6106    2.0184    0.0515 F   0  0  0  0  0  0  0  0  0  0  0  0
    6.0135    0.0851   -1.2071 C   0  0  0  0  0  0  0  0  0  0  0  0
    5.0330   -0.7951   -1.6691 C   0  0  0  0  0  0  0  0  0  0  0  0
    3.6905   -0.5945   -1.3318 C   0  0  0  0  0  0  0  0  0  0  0  0
    2.7613   -1.4733   -1.7867 F   0  0  0  0  0  0  0  0  0  0  0  0
    1.4643   -0.2887    0.9732 C   0  0  1  0  0  0  0  0  0  0  0  0
    2.2972   -0.0728    2.1614 N   0  0  0  0  0  0  0  0  0  0  0  0
   -0.0362   -0.2043    1.3531 C   0  0  0  0  0  0  0  0  0  0  0  0
   -3.0336   -2.0875   -0.1231 C   0  0  0  0  0  0  0  0  0  0  0  0
   -5.1223   -1.4769   -2.0804 H   0  0  0  0  0  0  0  0  0  0  0  0
   -3.2146   -0.7287    2.6129 H   0  0  0  0  0  0  0  0  0  0  0  0
   -2.6844    0.6559    1.5899 H   0  0  0  0  0  0  0  0  0  0  0  0
   -0.4341   -1.5549   -0.2783 H   0  0  0  0  0  0  0  0  0  0  0  0
   -2.1948    0.9447   -0.5764 H   0  0  0  0  0  0  0  0  0  0  0  0
   -1.5826   -0.1928   -1.7948 H   0  0  0  0  0  0  0  0  0  0  0  0
   -0.1564    2.1239   -0.4305 H   0  0  0  0  0  0  0  0  0  0  0  0
   -0.3743    1.7731   -2.1486 H   0  0  0  0  0  0  0  0  0  0  0  0
    1.8000    1.7565    0.2954 H   0  0  0  0  0  0  0  0  0  0  0  0
    4.0613    2.2180    0.5718 H   0  0  0  0  0  0  0  0  0  0  0  0
    7.0509   -0.0760   -1.4705 H   0  0  0  0  0  0  0  0  0  0  0  0
    5.3150   -1.6372   -2.2880 H   0  0  0  0  0  0  0  0  0  0  0  0
    1.6698   -1.3178    0.6025 H   0  0  0  0  0  0  0  0  0  0  0  0
    2.1240   -0.8465    2.8439 H   0  0  0  0  0  0  0  0  0  0  0  0
    2.0184    0.8239    2.6232 H   0  0  0  0  0  0  0  0  0  0  0  0
   -0.3033    0.8362    1.6388 H   0  0  0  0  0  0  0  0  0  0  0  0
   -0.1887   -0.8315    2.2594 H   0  0  0  0  0  0  0  0  0  0  0  0
   -3.1621   -3.1323    0.2289 H   0  0  0  0  0  0  0  0  0  0  0  0
   -2.6160   -2.1091   -1.1523 H   0  0  0  0  0  0  0  0  0  0  0  0
  1  2  3  0
  2  3  1  0
  3  4  2  0
  4  5  1  0
  5  6  1  0
  6  7  2  0
  7  8  1  0
  8  9  1  0
  9 10  1  0
 10 11  1  0
 11 12  1  0
 12 13  1  0
 13 14  1  0
 14 15  1  0
 15 16  2  0
 16 17  1  0
 17 18  1  0
 17 19  2  0
 19 20  1  0
 20 21  2  0
 21 22  1  0
 14 23  1  0
 23 24  1  0
 23 25  1  0
  9 26  1  0
  7  3  1  0
 25 10  1  0
 26  6  1  0
 21 15  1  0
  5 27  1  0
  8 28  1  0
  8 29  1  0
 10 30  1  6
 11 31  1  0
 11 32  1  0
 12 33  1  0
 12 34  1  0
 14 35  1  1
 16 36  1  0
 19 37  1  0
 20 38  1  0
 23 39  1  6
 24 40  1  0
 24 41  1  0
 25 42  1  0
 25 43  1  0
 26 44  1  0
 26 45  1  0
M  END
$$$$
