
     RDKit          3D

 53 56  0  0  0  0  0  0  0  0999 V2000
   -1.2448   -3.0405    0.5229 N   0  0  0  0  0  0  0  0  0  0  0  0
   -2.3268   -2.0879    0.7849 C   0  0  1  0  0  0  0  0  0  0  0  0
   -1.7458   -0.7059    1.1730 C   0  0  0  0  0  0  0  0  0  0  0  0
   -0.8227   -0.0939    0.1048 C   0  0  0  0  0  0  0  0  0  0  0  0
   -0.2451    1.1757    0.5919 N   0  0  0  0  0  0  0  0  0  0  0  0
   -1.2200    2.2829    0.5973 C   0  0  0  0  0  0  0  0  0  0  0  0
   -0.5563    3.5060   -0.0262 C   0  0  0  0  0  0  0  0  0  0  0  0
    0.9006    3.1332   -0.1755 C   0  0  0  0  0  0  0  0  0  0  0  0
    0.8798    1.6162   -0.2448 C   0  0  1  0  0  0  0  0  0  0  0  0
    2.1694    1.0317    0.2530 C   0  0  0  0  0  0  0  0  0  0  0  0
    2.4871    0.9149    1.5573 N   0  0  0  0  0  0  0  0  0  0  0  0
    3.6810    0.4066    1.5630 O   0  0  0  0  0  0  0  0  0  0  0  0
    4.0910    0.2226    0.3309 C   0  0  0  0  0  0  0  0  0  0  0  0
    5.4069   -0.3390   -0.0316 C   0  0  0  0  0  0  0  0  0  0  0  0
    5.7691   -0.5029   -1.3806 C   0  0  0  0  0  0  0  0  0  0  0  0
    7.0178   -1.0361   -1.7158 C   0  0  0  0  0  0  0  0  0  0  0  0
    7.9134   -1.4094   -0.7106 C   0  0  0  0  0  0  0  0  0  0  0  0
    7.5620   -1.2502    0.6323 C   0  0  0  0  0  0  0  0  0  0  0  0
    6.3145   -0.7175    0.9727 C   0  0  0  0  0  0  0  0  0  0  0  0
    3.1594    0.6134   -0.5618 N   0  0  0  0  0  0  0  0  0  0  0  0
   -3.2809   -2.0321   -0.4313 C   0  0  0  0  0  0  0  0  0  0  0  0
   -4.4622   -1.1199   -0.1993 C   0  0  0  0  0  0  0  0  0  0  0  0
   -4.5011    0.1520   -0.7975 C   0  0  0  0  0  0  0  0  0  0  0  0
   -5.5764    1.0123   -0.5589 C   0  0  0  0  0  0  0  0  0  0  0  0
   -6.6228    0.6110    0.2747 C   0  0  0  0  0  0  0  0  0  0  0  0
   -6.5963   -0.6523    0.8707 C   0  0  0  0  0  0  0  0  0  0  0  0
   -5.5220   -1.5175    0.6380 C   0  0  0  0  0  0  0  0  0  0  0  0
   -5.5168   -2.7406    1.2263 F   0  0  0  0  0  0  0  0  0  0  0  0
   -0.6561   -3.1185    1.3843 H   0  0  0  0  0  0  0  0  0  0  0  0
   -1.6645   -3.9878    0.3780 H   0  0  0  0  0  0  0  0  0  0  0  0
   -2.9097   -2.4561    1.6600 H   0  0  0  0  0  0  0  0  0  0  0  0
   -1.1645   -0.8198    2.1142 H   0  0  0  0  0  0  0  0  0  0  0  0
   -2.5774   -0.0063    1.4011 H   0  0  0  0  0  0  0  0  0  0  0  0
   -0.0020   -0.8172   -0.0979 H   0  0  0  0  0  0  0  0  0  0  0  0
   -1.3673    0.0666   -0.8503 H   0  0  0  0  0  0  0  0  0  0  0  0
   -2.1528    2.0440    0.0378 H   0  0  0  0  0  0  0  0  0  0  0  0
   -1.4989    2.5044    1.6498 H   0  0  0  0  0  0  0  0  0  0  0  0
   -0.9962    3.7047   -1.0286 H   0  0  0  0  0  0  0  0  0  0  0  0
   -0.6783    4.4079    0.6126 H   0  0  0  0  0  0  0  0  0  0  0  0
    1.4605    3.4851    0.7206 H   0  0  0  0  0  0  0  0  0  0  0  0
    1.3462    3.5799   -1.0911 H   0  0  0  0  0  0  0  0  0  0  0  0
    0.7246    1.3195   -1.3098 H   0  0  0  0  0  0  0  0  0  0  0  0
    5.0892   -0.2198   -2.1744 H   0  0  0  0  0  0  0  0  0  0  0  0
    7.2911   -1.1599   -2.7558 H   0  0  0  0  0  0  0  0  0  0  0  0
    8.8793   -1.8219   -0.9720 H   0  0  0  0  0  0  0  0  0  0  0  0
    8.2566   -1.5398    1.4102 H   0  0  0  0  0  0  0  0  0  0  0  0
    6.0600   -0.6017    2.0189 H   0  0  0  0  0  0  0  0  0  0  0  0
   -2.7240   -1.7300   -1.3438 H   0  0  0  0  0  0  0  0  0  0  0  0
   -3.6654   -3.0550   -0.6366 H   0  0  0  0  0  0  0  0  0  0  0  0
   -3.6999    0.4799   -1.4470 H   0  0  0  0  0  0  0  0  0  0  0  0
   -5.5981    1.9910   -1.0205 H   0  0  0  0  0  0  0  0  0  0  0  0
   -7.4548    1.2785    0.4581 H   0  0  0  0  0  0  0  0  0  0  0  0
   -7.4096   -0.9606    1.5151 H   0  0  0  0  0  0  0  0  0  0  0  0
  1  2  1  0
  2  3  1  0
  3  4  1  0
  4  5  1  0
  5  6  1  0
  6  7  1  0
  7  8  1  0
  8  9  1  0
  9 10  1  0
 10 11  2  0
 11 12  1  0
 12 13  1  0
 13 14  1  0
 14 15  2  0
 15 16  1  0
 16 17  2  0
 17 18  1  0
 18 19  2  0
 13 20  2  0
  2 21  1  0
 21 22  1  0
 22 23  2  0
 23 24  1  0
 24 25  2  0
 25 26  1  0
 26 27  2  0
 27 28  1  0
  9  5  1  0
 20 10  1  0
 27 22  1  0
 19 14  1  0
  1 29  1  0
  1 30  1  0
  2 31  1  1
  3 32  1  0
  3 33  1  0
  4 34  1  0
  4 35  1  0
  6 36  1  0
  6 37  1  0
  7 38  1  0
  7 39  1  0
  8 40  1  0
  8 41  1  0
  9 42  1  6
 15 43  1  0
 16 44  1  0
 17 45  1  0
 18 46  1  0
 19 47  1  0
 21 48  1  0
 21 49  1  0
 23 50  1  0
 24 51  1  0
 25 52  1  0
 26 53  1  0
M  END
$$$$
