
     RDKit          3D

 35 36  0  0  0  0  0  0  0  0999 V2000
   -3.5530    2.7461    1.1551 N   0  0  0  0  0  0  0  0  0  0  0  0
   -3.1503    1.8309    0.5724 C   0  0  0  0  0  0  0  0  0  0  0  0
   -2.6362    0.6665   -0.1689 C   0  0  2  0  0  0  0  0  0  0  0  0
   -3.7641   -0.3237   -0.4774 C   0  0  0  0  0  0  0  0  0  0  0  0
   -3.2071   -1.7042   -0.1384 C   0  0  2  0  0  0  0  0  0  0  0  0
   -4.1772   -2.5081    0.4365 F   0  0  0  0  0  0  0  0  0  0  0  0
   -2.0553   -1.4625    0.8266 C   0  0  0  0  0  0  0  0  0  0  0  0
   -1.6736   -0.0729    0.6391 N   0  0  0  0  0  0  0  0  0  0  0  0
   -0.4116    0.4386    1.1128 C   0  0  0  0  0  0  0  0  0  0  0  0
    0.2085   -0.1978    2.0088 O   0  0  0  0  0  0  0  0  0  0  0  0
    0.2349    1.6639    0.4892 C   0  0  1  0  0  0  0  0  0  0  0  0
    1.1341    2.3440    1.4276 N   0  0  0  0  0  0  0  0  0  0  0  0
    0.9702    1.3184   -0.8233 C   0  0  0  0  0  0  0  0  0  0  0  0
    2.0682    0.2932   -0.6506 C   0  0  0  0  0  0  0  0  0  0  0  0
    1.7692   -1.0768   -0.7521 C   0  0  0  0  0  0  0  0  0  0  0  0
    2.7713   -2.0351   -0.5743 C   0  0  0  0  0  0  0  0  0  0  0  0
    2.4696   -3.3537   -0.6707 F   0  0  0  0  0  0  0  0  0  0  0  0
    4.0814   -1.6344   -0.2969 C   0  0  0  0  0  0  0  0  0  0  0  0
    5.0545   -2.5629   -0.1241 F   0  0  0  0  0  0  0  0  0  0  0  0
    4.3900   -0.2750   -0.1988 C   0  0  0  0  0  0  0  0  0  0  0  0
    3.3913    0.6884   -0.3746 C   0  0  0  0  0  0  0  0  0  0  0  0
    3.7153    2.0027   -0.2754 F   0  0  0  0  0  0  0  0  0  0  0  0
   -2.1591    1.0026   -1.1139 H   0  0  0  0  0  0  0  0  0  0  0  0
   -4.0614   -0.2687   -1.5475 H   0  0  0  0  0  0  0  0  0  0  0  0
   -4.6643   -0.1298    0.1497 H   0  0  0  0  0  0  0  0  0  0  0  0
   -2.8248   -2.1890   -1.0638 H   0  0  0  0  0  0  0  0  0  0  0  0
   -1.2056   -2.1386    0.5871 H   0  0  0  0  0  0  0  0  0  0  0  0
   -2.3754   -1.6184    1.8797 H   0  0  0  0  0  0  0  0  0  0  0  0
   -0.5596    2.3910    0.2239 H   0  0  0  0  0  0  0  0  0  0  0  0
    0.5747    2.6612    2.2530 H   0  0  0  0  0  0  0  0  0  0  0  0
    1.8576    1.6779    1.7828 H   0  0  0  0  0  0  0  0  0  0  0  0
    0.2337    0.9430   -1.5666 H   0  0  0  0  0  0  0  0  0  0  0  0
    1.3900    2.2512   -1.2590 H   0  0  0  0  0  0  0  0  0  0  0  0
    0.7585   -1.4012   -0.9669 H   0  0  0  0  0  0  0  0  0  0  0  0
    5.4055    0.0333    0.0146 H   0  0  0  0  0  0  0  0  0  0  0  0
  1  2  3  0
  2  3  1  0
  3  4  1  0
  4  5  1  0
  5  6  1  0
  5  7  1  0
  7  8  1  0
  8  9  1  0
  9 10  2  0
  9 11  1  0
 11 12  1  0
 11 13  1  0
 13 14  1  0
 14 15  2  0
 15 16  1  0
 16 17  1  0
 16 18  2  0
 18 19  1  0
 18 20  1  0
 20 21  2  0
 21 22  1  0
  8  3  1  0
 21 14  1  0
  3 23  1  6
  4 24  1  0
  4 25  1  0
  5 26  1  6
  7 27  1  0
  7 28  1  0
 11 29  1  6
 12 30  1  0
 12 31  1  0
 13 32  1  0
 13 33  1  0
 15 34  1  0
 20 35  1  0
M  END
$$$$
