
     RDKit          3D

 53 56  0  0  0  0  0  0  0  0999 V2000
    0.8863   -2.5511    2.2376 O   0  0  0  0  0  0  0  0  0  0  0  0
    1.1320   -2.2199    1.0458 C   0  0  0  0  0  0  0  0  0  0  0  0
    0.2152   -2.6979   -0.0493 C   0  0  0  0  0  0  0  0  0  0  0  0
   -1.2027   -2.6055    0.3609 N   0  0  0  0  0  0  0  0  0  0  0  0
   -1.6101   -1.1916    0.5660 C   0  0  0  0  0  0  0  0  0  0  0  0
   -3.1348   -1.0242    0.4866 C   0  0  0  0  0  0  0  0  0  0  0  0
   -3.6850   -1.4547   -0.8207 N   0  0  0  0  0  0  0  0  0  0  0  0
   -4.0512   -0.0796   -1.8350 S   0  0  0  0  0  0  0  0  0  0  0  0
   -2.8190    0.7686   -1.9936 O   0  0  0  0  0  0  0  0  0  0  0  0
   -4.5054   -0.5492   -3.1889 O   0  0  0  0  0  0  0  0  0  0  0  0
   -5.3426    0.8700   -1.1056 C   0  0  0  0  0  0  0  0  0  0  0  0
   -6.3987    0.2239   -0.4475 C   0  0  0  0  0  0  0  0  0  0  0  0
   -7.4270    0.9723    0.1339 C   0  0  0  0  0  0  0  0  0  0  0  0
   -7.4068    2.3680    0.0569 C   0  0  0  0  0  0  0  0  0  0  0  0
   -6.3589    3.0164   -0.6033 C   0  0  0  0  0  0  0  0  0  0  0  0
   -5.3289    2.2704   -1.1853 C   0  0  0  0  0  0  0  0  0  0  0  0
   -2.8136   -2.3980   -1.5505 C   0  0  0  0  0  0  0  0  0  0  0  0
   -2.0876   -3.3397   -0.5806 C   0  0  0  0  0  0  0  0  0  0  0  0
    2.2881   -1.4140    0.7542 N   0  0  0  0  0  0  0  0  0  0  0  0
    3.0728   -1.4817   -0.4375 C   0  0  0  0  0  0  0  0  0  0  0  0
    2.8969   -2.3707   -1.3118 O   0  0  0  0  0  0  0  0  0  0  0  0
    4.4210   -0.3031   -0.5572 S   0  0  0  0  0  0  0  0  0  0  0  0
    4.0706    0.1721    1.1471 C   0  0  0  0  0  0  0  0  0  0  0  0
    4.8728    0.9322    1.9091 C   0  0  0  0  0  0  0  0  0  0  0  0
    6.1032    1.5886    1.4204 C   0  0  0  0  0  0  0  0  0  0  0  0
    6.1160    2.3343    0.2277 C   0  0  0  0  0  0  0  0  0  0  0  0
    7.2864    2.9746   -0.1908 C   0  0  0  0  0  0  0  0  0  0  0  0
    8.4464    2.8923    0.5845 C   0  0  0  0  0  0  0  0  0  0  0  0
    9.5786    3.5168    0.1759 F   0  0  0  0  0  0  0  0  0  0  0  0
    8.4339    2.1774    1.7862 C   0  0  0  0  0  0  0  0  0  0  0  0
    9.5543    2.1076    2.5470 F   0  0  0  0  0  0  0  0  0  0  0  0
    7.2642    1.5363    2.2076 C   0  0  0  0  0  0  0  0  0  0  0  0
    2.8746   -0.4920    1.6643 C   0  0  0  0  0  0  0  0  0  0  0  0
    2.3956   -0.2692    2.8095 O   0  0  0  0  0  0  0  0  0  0  0  0
    0.4893   -3.7563   -0.2518 H   0  0  0  0  0  0  0  0  0  0  0  0
    0.3779   -2.1157   -0.9831 H   0  0  0  0  0  0  0  0  0  0  0  0
   -1.2730   -0.8574    1.5706 H   0  0  0  0  0  0  0  0  0  0  0  0
   -1.1420   -0.5201   -0.1889 H   0  0  0  0  0  0  0  0  0  0  0  0
   -3.5995   -1.6455    1.2819 H   0  0  0  0  0  0  0  0  0  0  0  0
   -3.3993    0.0298    0.7228 H   0  0  0  0  0  0  0  0  0  0  0  0
   -6.4251   -0.8566   -0.3840 H   0  0  0  0  0  0  0  0  0  0  0  0
   -8.2396    0.4706    0.6432 H   0  0  0  0  0  0  0  0  0  0  0  0
   -8.2033    2.9464    0.5068 H   0  0  0  0  0  0  0  0  0  0  0  0
   -6.3453    4.0969   -0.6649 H   0  0  0  0  0  0  0  0  0  0  0  0
   -4.5253    2.7845   -1.6966 H   0  0  0  0  0  0  0  0  0  0  0  0
   -2.0506   -1.8599   -2.1573 H   0  0  0  0  0  0  0  0  0  0  0  0
   -3.4376   -3.0041   -2.2416 H   0  0  0  0  0  0  0  0  0  0  0  0
   -2.8482   -3.8921    0.0122 H   0  0  0  0  0  0  0  0  0  0  0  0
   -1.5362   -4.1077   -1.1677 H   0  0  0  0  0  0  0  0  0  0  0  0
    4.6469    1.0346    2.9641 H   0  0  0  0  0  0  0  0  0  0  0  0
    5.2180    2.4405   -0.3674 H   0  0  0  0  0  0  0  0  0  0  0  0
    7.2903    3.5429   -1.1120 H   0  0  0  0  0  0  0  0  0  0  0  0
    7.2659    0.9893    3.1428 H   0  0  0  0  0  0  0  0  0  0  0  0
  1  2  2  0
  2  3  1  0
  3  4  1  0
  4  5  1  0
  5  6  1  0
  6  7  1  0
  7  8  1  0
  8  9  2  0
  8 10  2  0
  8 11  1  0
 11 12  2  0
 12 13  1  0
 13 14  2  0
 14 15  1  0
 15 16  2  0
  7 17  1  0
 17 18  1  0
  2 19  1  0
 19 20  1  0
 20 21  2  0
 20 22  1  0
 22 23  1  0
 23 24  2  0
 24 25  1  0
 25 26  2  0
 26 27  1  0
 27 28  2  0
 28 29  1  0
 28 30  1  0
 30 31  1  0
 30 32  2  0
 23 33  1  0
 33 34  2  0
 18  4  1  0
 33 19  1  0
 16 11  1  0
 32 25  1  0
  3 35  1  0
  3 36  1  0
  5 37  1  0
  5 38  1  0
  6 39  1  0
  6 40  1  0
 12 41  1  0
 13 42  1  0
 14 43  1  0
 15 44  1  0
 16 45  1  0
 17 46  1  0
 17 47  1  0
 18 48  1  0
 18 49  1  0
 24 50  1  0
 26 51  1  0
 27 52  1  0
 32 53  1  0
M  END
$$$$
