
     RDKit          3D

 26 26  0  0  0  0  0  0  0  0999 V2000
   -7.9633    1.1128    0.4397 C   0  0  0  0  0  0  0  0  0  0  0  0
   -6.5541    0.8097    0.1895 C   0  0  0  0  0  0  0  0  0  0  0  0
   -5.3930    0.5600   -0.0166 C   0  0  0  0  0  0  0  0  0  0  0  0
   -4.0334    0.2676   -0.2580 C   0  0  0  0  0  0  0  0  0  0  0  0
   -2.8725    0.0180   -0.4641 C   0  0  0  0  0  0  0  0  0  0  0  0
   -1.4894   -0.2794   -0.7095 C   0  0  0  0  0  0  0  0  0  0  0  0
   -0.9936   -0.9453   -1.8225 C   0  0  0  0  0  0  0  0  0  0  0  0
    0.3980   -1.0940   -1.7938 C   0  0  0  0  0  0  0  0  0  0  0  0
    0.9773   -0.5431   -0.6586 C   0  0  0  0  0  0  0  0  0  0  0  0
    2.3804   -0.5431   -0.3555 C   0  0  0  0  0  0  0  0  0  0  0  0
    3.5584   -0.5420   -0.0995 C   0  0  0  0  0  0  0  0  0  0  0  0
    4.9980   -0.5390    0.2151 C   0  0  0  0  0  0  0  0  0  0  0  0
    5.6898    0.3532   -0.6223 O   0  0  0  0  0  0  0  0  0  0  0  0
    5.2444   -0.2162    1.6967 C   0  0  0  0  0  0  0  0  0  0  0  0
    4.7086    1.0348    2.0420 O   0  0  0  0  0  0  0  0  0  0  0  0
   -0.2188    0.1286    0.3133 S   0  0  0  0  0  0  0  0  0  0  0  0
   -8.3159    0.5342    1.3182 H   0  0  0  0  0  0  0  0  0  0  0  0
   -8.0783    2.1977    0.6413 H   0  0  0  0  0  0  0  0  0  0  0  0
   -8.5649    0.8365   -0.4506 H   0  0  0  0  0  0  0  0  0  0  0  0
   -1.6145   -1.3123   -2.6295 H   0  0  0  0  0  0  0  0  0  0  0  0
    0.9599   -1.5873   -2.5763 H   0  0  0  0  0  0  0  0  0  0  0  0
    5.3853   -1.5611    0.0185 H   0  0  0  0  0  0  0  0  0  0  0  0
    5.2810    1.2525   -0.5184 H   0  0  0  0  0  0  0  0  0  0  0  0
    4.7598   -0.9935    2.3261 H   0  0  0  0  0  0  0  0  0  0  0  0
    6.3373   -0.2530    1.9128 H   0  0  0  0  0  0  0  0  0  0  0  0
    5.4135    1.7101    1.8622 H   0  0  0  0  0  0  0  0  0  0  0  0
  1  2  1  0
  2  3  3  0
  3  4  1  0
  4  5  3  0
  5  6  1  0
  6  7  2  0
  7  8  1  0
  8  9  2  0
  9 10  1  0
 10 11  3  0
 11 12  1  0
 12 13  1  0
 12 14  1  0
 14 15  1  0
  9 16  1  0
 16  6  1  0
  1 17  1  0
  1 18  1  0
  1 19  1  0
  7 20  1  0
  8 21  1  0
 12 22  1  0
 13 23  1  0
 14 24  1  0
 14 25  1  0
 15 26  1  0
M  END
$$$$
