
     RDKit          3D

 41 43  0  0  0  0  0  0  0  0999 V2000
    7.3345   -1.2877   -2.7567 N   0  0  0  0  0  0  0  0  0  0  0  0
    6.4145   -1.3543   -2.0578 C   0  0  0  0  0  0  0  0  0  0  0  0
    5.2703   -1.4370   -1.1886 C   0  0  0  0  0  0  0  0  0  0  0  0
    4.3256   -0.4087   -1.1616 C   0  0  0  0  0  0  0  0  0  0  0  0
    3.2193   -0.4994   -0.3144 C   0  0  0  0  0  0  0  0  0  0  0  0
    3.0632   -1.6315    0.5089 C   0  0  0  0  0  0  0  0  0  0  0  0
    1.9496   -1.7986    1.4119 N   0  0  0  0  0  0  0  0  0  0  0  0
    0.8162   -0.8848    1.6289 C   0  0  1  0  0  0  0  0  0  0  0  0
    1.2437    0.5096    2.0901 C   0  0  0  0  0  0  0  0  0  0  0  0
    0.6741    1.4831    1.1568 N   0  0  0  0  0  0  0  0  0  0  0  0
   -0.3826    0.8006    0.3980 C   0  0  2  0  0  0  0  0  0  0  0  0
   -1.7577    1.0181    1.0084 C   0  0  0  0  0  0  0  0  0  0  0  0
   -1.8648    1.1285    2.2610 O   0  0  0  0  0  0  0  0  0  0  0  0
   -2.9516    1.0104    0.1998 N   0  0  0  0  0  0  0  0  0  0  0  0
   -4.2826    1.0342    0.7864 C   0  0  0  0  0  0  0  0  0  0  0  0
   -5.2540    0.9836   -0.3855 C   0  0  0  0  0  0  0  0  0  0  0  0
   -4.4370    0.4859   -1.5739 C   0  0  0  0  0  0  0  0  0  0  0  0
   -2.9844    0.8298   -1.2458 C   0  0  1  0  0  0  0  0  0  0  0  0
   -2.5778    2.0762   -1.9161 C   0  0  0  0  0  0  0  0  0  0  0  0
   -2.2574    3.0559   -2.4421 N   0  0  0  0  0  0  0  0  0  0  0  0
   -0.0320   -0.6840    0.3824 C   0  0  0  0  0  0  0  0  0  0  0  0
    4.0048   -2.6152    0.4570 N   0  0  0  0  0  0  0  0  0  0  0  0
    5.0891   -2.5470   -0.3601 C   0  0  0  0  0  0  0  0  0  0  0  0
    4.4436    0.4626   -1.7948 H   0  0  0  0  0  0  0  0  0  0  0  0
    2.5086    0.3100   -0.3180 H   0  0  0  0  0  0  0  0  0  0  0  0
    1.9470   -2.6725    1.9856 H   0  0  0  0  0  0  0  0  0  0  0  0
    0.1604   -1.3194    2.4182 H   0  0  0  0  0  0  0  0  0  0  0  0
    2.3479    0.6223    2.1145 H   0  0  0  0  0  0  0  0  0  0  0  0
    0.8647    0.6991    3.1202 H   0  0  0  0  0  0  0  0  0  0  0  0
    0.3101    2.3182    1.6737 H   0  0  0  0  0  0  0  0  0  0  0  0
   -0.3634    1.1946   -0.6381 H   0  0  0  0  0  0  0  0  0  0  0  0
   -4.4189    0.1444    1.4389 H   0  0  0  0  0  0  0  0  0  0  0  0
   -4.4287    1.9638    1.3781 H   0  0  0  0  0  0  0  0  0  0  0  0
   -5.6330    2.0070   -0.6006 H   0  0  0  0  0  0  0  0  0  0  0  0
   -6.1134    0.3111   -0.1736 H   0  0  0  0  0  0  0  0  0  0  0  0
   -4.5420   -0.6193   -1.6461 H   0  0  0  0  0  0  0  0  0  0  0  0
   -4.7920    0.9350   -2.5285 H   0  0  0  0  0  0  0  0  0  0  0  0
   -2.3174   -0.0032   -1.5565 H   0  0  0  0  0  0  0  0  0  0  0  0
    0.5315   -0.9273   -0.5427 H   0  0  0  0  0  0  0  0  0  0  0  0
   -0.9340   -1.3363    0.4008 H   0  0  0  0  0  0  0  0  0  0  0  0
    5.8064   -3.3581   -0.3611 H   0  0  0  0  0  0  0  0  0  0  0  0
  1  2  3  0
  2  3  1  0
  3  4  2  0
  4  5  1  0
  5  6  2  0
  6  7  1  0
  7  8  1  0
  8  9  1  0
  9 10  1  0
 10 11  1  0
 11 12  1  0
 12 13  2  0
 12 14  1  0
 14 15  1  0
 15 16  1  0
 16 17  1  0
 17 18  1  0
 18 19  1  0
 19 20  3  0
 11 21  1  0
  6 22  1  0
 22 23  2  0
 23  3  1  0
 21  8  1  0
 18 14  1  0
  4 24  1  0
  5 25  1  0
  7 26  1  0
  8 27  1  1
  9 28  1  0
  9 29  1  0
 10 30  1  0
 11 31  1  6
 15 32  1  0
 15 33  1  0
 16 34  1  0
 16 35  1  0
 17 36  1  0
 17 37  1  0
 18 38  1  1
 21 39  1  0
 21 40  1  0
 23 41  1  0
M  END
$$$$
