
     RDKit          3D

 66 70  0  0  0  0  0  0  0  0999 V2000
    0.6878    0.0000    0.0000 Cl  0  0  0  0  0  0  0  0  0  0  0  0
   -5.4628    0.9251   -1.6534 N   0  0  0  0  0  0  0  0  0  0  0  0
   -4.6844   -0.2826   -1.3719 C   0  0  2  0  0  0  0  0  0  0  0  0
   -5.5999   -1.4600   -0.9230 C   0  0  0  0  0  0  0  0  0  0  0  0
   -5.0872   -2.2099    0.3190 C   0  0  0  0  0  0  0  0  0  0  0  0
   -3.5733   -2.4429    0.2555 C   0  0  0  0  0  0  0  0  0  0  0  0
   -2.8541   -1.1941   -0.0197 N   0  0  0  0  0  0  0  0  0  0  0  0
   -1.4330   -1.2323   -0.1823 C   0  0  0  0  0  0  0  0  0  0  0  0
   -0.8468   -1.2948   -1.4010 N   0  0  0  0  0  0  0  0  0  0  0  0
    0.4649   -1.2253   -1.1046 C   0  0  0  0  0  0  0  0  0  0  0  0
    1.5298   -1.2118   -1.9964 C   0  0  0  0  0  0  0  0  0  0  0  0
    1.3245   -1.3163   -3.3809 C   0  0  0  0  0  0  0  0  0  0  0  0
    2.4116   -1.2894   -4.2516 C   0  0  0  0  0  0  0  0  0  0  0  0
    3.7050   -1.1565   -3.7506 C   0  0  0  0  0  0  0  0  0  0  0  0
    3.9251   -1.0501   -2.3746 C   0  0  0  0  0  0  0  0  0  0  0  0
    2.8437   -1.0756   -1.4589 C   0  0  0  0  0  0  0  0  0  0  0  0
    3.0285   -0.9629   -0.0811 N   0  0  0  0  0  0  0  0  0  0  0  0
    4.3828   -0.7878    0.4972 C   0  0  0  0  0  0  0  0  0  0  0  0
    4.8861    0.6213    0.2923 C   0  0  0  0  0  0  0  0  0  0  0  0
    6.1697    0.8461   -0.2351 C   0  0  0  0  0  0  0  0  0  0  0  0
    6.6440    2.1501   -0.4072 C   0  0  0  0  0  0  0  0  0  0  0  0
    5.8484    3.2391   -0.0424 C   0  0  0  0  0  0  0  0  0  0  0  0
    4.5792    3.0257    0.5009 C   0  0  0  0  0  0  0  0  0  0  0  0
    4.1007    1.7237    0.6747 C   0  0  0  0  0  0  0  0  0  0  0  0
    1.9385   -0.9757    0.7722 C   0  0  0  0  0  0  0  0  0  0  0  0
    2.0946   -0.8531    2.0171 O   0  0  0  0  0  0  0  0  0  0  0  0
    0.6523   -1.1145    0.2377 C   0  0  0  0  0  0  0  0  0  0  0  0
   -0.5552   -1.1218    0.8475 N   0  0  0  0  0  0  0  0  0  0  0  0
   -0.9022   -0.9141    2.2595 C   0  0  0  0  0  0  0  0  0  0  0  0
   -1.3605    0.5090    2.4931 C   0  0  0  0  0  0  0  0  0  0  0  0
   -0.5054    1.5676    2.1336 C   0  0  0  0  0  0  0  0  0  0  0  0
   -0.8951    2.8947    2.3237 C   0  0  0  0  0  0  0  0  0  0  0  0
   -2.1383    3.1848    2.8844 C   0  0  0  0  0  0  0  0  0  0  0  0
   -2.9920    2.1481    3.2640 C   0  0  0  0  0  0  0  0  0  0  0  0
   -2.6131    0.8122    3.0803 C   0  0  0  0  0  0  0  0  0  0  0  0
   -3.7417   -0.4352    3.6022 Cl  0  0  0  0  0  0  0  0  0  0  0  0
   -3.5858    0.0332   -0.3467 C   0  0  0  0  0  0  0  0  0  0  0  0
   -0.6878    0.0000    0.0000 H   0  0  0  0  0  0  0  0  0  0  0  0
   -6.1548    0.7076   -2.4072 H   0  0  0  0  0  0  0  0  0  0  0  0
   -6.0033    1.1945   -0.7988 H   0  0  0  0  0  0  0  0  0  0  0  0
   -4.1697   -0.5862   -2.3117 H   0  0  0  0  0  0  0  0  0  0  0  0
   -5.6877   -2.1834   -1.7632 H   0  0  0  0  0  0  0  0  0  0  0  0
   -6.6296   -1.1012   -0.7053 H   0  0  0  0  0  0  0  0  0  0  0  0
   -5.6109   -3.1860    0.4081 H   0  0  0  0  0  0  0  0  0  0  0  0
   -5.3259   -1.6166    1.2284 H   0  0  0  0  0  0  0  0  0  0  0  0
   -3.3505   -3.1792   -0.5474 H   0  0  0  0  0  0  0  0  0  0  0  0
   -3.2325   -2.8687    1.2224 H   0  0  0  0  0  0  0  0  0  0  0  0
    0.3262   -1.4180   -3.7892 H   0  0  0  0  0  0  0  0  0  0  0  0
    2.2514   -1.3702   -5.3190 H   0  0  0  0  0  0  0  0  0  0  0  0
    4.5448   -1.1341   -4.4333 H   0  0  0  0  0  0  0  0  0  0  0  0
    4.9487   -0.9451   -2.0537 H   0  0  0  0  0  0  0  0  0  0  0  0
    5.0780   -1.5410    0.0683 H   0  0  0  0  0  0  0  0  0  0  0  0
    4.4034   -1.0037    1.5863 H   0  0  0  0  0  0  0  0  0  0  0  0
    6.8027    0.0137   -0.5162 H   0  0  0  0  0  0  0  0  0  0  0  0
    7.6303    2.3163   -0.8208 H   0  0  0  0  0  0  0  0  0  0  0  0
    6.2176    4.2478   -0.1754 H   0  0  0  0  0  0  0  0  0  0  0  0
    3.9666    3.8697    0.7908 H   0  0  0  0  0  0  0  0  0  0  0  0
    3.1191    1.5793    1.1060 H   0  0  0  0  0  0  0  0  0  0  0  0
   -1.6786   -1.6502    2.5401 H   0  0  0  0  0  0  0  0  0  0  0  0
   -0.0498   -1.1377    2.9266 H   0  0  0  0  0  0  0  0  0  0  0  0
    0.4649    1.3688    1.6993 H   0  0  0  0  0  0  0  0  0  0  0  0
   -0.2309    3.6995    2.0359 H   0  0  0  0  0  0  0  0  0  0  0  0
   -2.4389    4.2143    3.0303 H   0  0  0  0  0  0  0  0  0  0  0  0
   -3.9519    2.3850    3.7053 H   0  0  0  0  0  0  0  0  0  0  0  0
   -2.8981    0.8045   -0.7601 H   0  0  0  0  0  0  0  0  0  0  0  0
   -4.0392    0.4462    0.5795 H   0  0  0  0  0  0  0  0  0  0  0  0
  2  3  1  0
  3  4  1  0
  4  5  1  0
  5  6  1  0
  6  7  1  0
  7  8  1  0
  8  9  2  0
  9 10  1  0
 10 11  1  0
 11 12  2  0
 12 13  1  0
 13 14  2  0
 14 15  1  0
 15 16  2  0
 16 17  1  0
 17 18  1  0
 18 19  1  0
 19 20  2  0
 20 21  1  0
 21 22  2  0
 22 23  1  0
 23 24  2  0
 17 25  1  0
 25 26  2  0
 25 27  1  0
 27 28  1  0
 28 29  1  0
 29 30  1  0
 30 31  2  0
 31 32  1  0
 32 33  2  0
 33 34  1  0
 34 35  2  0
 35 36  1  0
  7 37  1  0
 37  3  1  0
 28  8  1  0
 35 30  1  0
 27 10  2  0
 16 11  1  0
 24 19  1  0
  1 38  1  0
  2 39  1  0
  2 40  1  0
  3 41  1  6
  4 42  1  0
  4 43  1  0
  5 44  1  0
  5 45  1  0
  6 46  1  0
  6 47  1  0
 12 48  1  0
 13 49  1  0
 14 50  1  0
 15 51  1  0
 18 52  1  0
 18 53  1  0
 20 54  1  0
 21 55  1  0
 22 56  1  0
 23 57  1  0
 24 58  1  0
 29 59  1  0
 29 60  1  0
 31 61  1  0
 32 62  1  0
 33 63  1  0
 34 64  1  0
 37 65  1  0
 37 66  1  0
M  END
$$$$
