
     RDKit          3D

 42 45  0  0  0  0  0  0  0  0999 V2000
    0.8266    3.2266   -3.3633 O   0  0  0  0  0  0  0  0  0  0  0  0
    0.4492    2.6738   -2.2956 C   0  0  0  0  0  0  0  0  0  0  0  0
    1.1387    1.5798   -1.7730 C   0  0  0  0  0  0  0  0  0  0  0  0
    0.6837    0.9868   -0.5760 C   0  0  0  0  0  0  0  0  0  0  0  0
    1.3893   -0.1588   -0.0723 N   0  0  0  0  0  0  0  0  0  0  0  0
    1.3031   -1.4308   -0.7951 C   0  0  0  0  0  0  0  0  0  0  0  0
    2.1016   -2.5168   -0.0652 C   0  0  0  0  0  0  0  0  0  0  0  0
    3.4955   -2.1051    0.1806 N   0  0  0  0  0  0  0  0  0  0  0  0
    3.6701   -0.7023    0.6226 C   0  0  0  0  0  0  0  0  0  0  0  0
    2.3583   -0.0114    1.0156 C   0  0  0  0  0  0  0  0  0  0  0  0
   -0.4258    1.4887    0.0784 N   0  0  0  0  0  0  0  0  0  0  0  0
   -0.9152    0.8687    1.3256 C   0  0  0  0  0  0  0  0  0  0  0  0
   -1.5782   -0.4563    1.0491 C   0  0  0  0  0  0  0  0  0  0  0  0
   -1.1517   -1.6176    1.7165 C   0  0  0  0  0  0  0  0  0  0  0  0
   -1.7618   -2.8472    1.4518 C   0  0  0  0  0  0  0  0  0  0  0  0
   -2.8097   -2.9253    0.5310 C   0  0  0  0  0  0  0  0  0  0  0  0
   -3.2526   -1.7727   -0.1231 C   0  0  0  0  0  0  0  0  0  0  0  0
   -2.6440   -0.5412    0.1371 C   0  0  0  0  0  0  0  0  0  0  0  0
   -1.0706    2.5584   -0.4897 C   0  0  0  0  0  0  0  0  0  0  0  0
   -2.2108    3.2229   -0.0712 C   0  0  0  0  0  0  0  0  0  0  0  0
   -2.3952    4.2017   -1.0405 C   0  0  0  0  0  0  0  0  0  0  0  0
   -1.4264    4.1205   -1.9801 N   0  0  0  0  0  0  0  0  0  0  0  0
   -0.6385    3.1197   -1.6273 N   0  0  0  0  0  0  0  0  0  0  0  0
    2.0126    1.1907   -2.2815 H   0  0  0  0  0  0  0  0  0  0  0  0
    0.2415   -1.7477   -0.8733 H   0  0  0  0  0  0  0  0  0  0  0  0
    1.7087   -1.3052   -1.8221 H   0  0  0  0  0  0  0  0  0  0  0  0
    2.0883   -3.4510   -0.6682 H   0  0  0  0  0  0  0  0  0  0  0  0
    1.6133   -2.7474    0.9062 H   0  0  0  0  0  0  0  0  0  0  0  0
    4.0387   -2.2447   -0.7040 H   0  0  0  0  0  0  0  0  0  0  0  0
    4.1471   -0.1073   -0.1891 H   0  0  0  0  0  0  0  0  0  0  0  0
    4.3596   -0.6867    1.4928 H   0  0  0  0  0  0  0  0  0  0  0  0
    2.5540    1.0630    1.2273 H   0  0  0  0  0  0  0  0  0  0  0  0
    1.9574   -0.4815    1.9386 H   0  0  0  0  0  0  0  0  0  0  0  0
   -1.6365    1.5188    1.8579 H   0  0  0  0  0  0  0  0  0  0  0  0
   -0.0726    0.7536    2.0377 H   0  0  0  0  0  0  0  0  0  0  0  0
   -0.3410   -1.5751    2.4329 H   0  0  0  0  0  0  0  0  0  0  0  0
   -1.4216   -3.7398    1.9606 H   0  0  0  0  0  0  0  0  0  0  0  0
   -3.2809   -3.8781    0.3271 H   0  0  0  0  0  0  0  0  0  0  0  0
   -4.0682   -1.8334   -0.8320 H   0  0  0  0  0  0  0  0  0  0  0  0
   -3.0002    0.3426   -0.3762 H   0  0  0  0  0  0  0  0  0  0  0  0
   -2.8388    3.0396    0.7889 H   0  0  0  0  0  0  0  0  0  0  0  0
   -3.1969    4.9275   -1.0596 H   0  0  0  0  0  0  0  0  0  0  0  0
  1  2  2  0
  2  3  1  0
  3  4  2  0
  4  5  1  0
  5  6  1  0
  6  7  1  0
  7  8  1  0
  8  9  1  0
  9 10  1  0
  4 11  1  0
 11 12  1  0
 12 13  1  0
 13 14  2  0
 14 15  1  0
 15 16  2  0
 16 17  1  0
 17 18  2  0
 11 19  1  0
 19 20  2  0
 20 21  1  0
 21 22  2  0
 22 23  1  0
 23  2  1  0
 10  5  1  0
 18 13  1  0
 23 19  1  0
  3 24  1  0
  6 25  1  0
  6 26  1  0
  7 27  1  0
  7 28  1  0
  8 29  1  0
  9 30  1  0
  9 31  1  0
 10 32  1  0
 10 33  1  0
 12 34  1  0
 12 35  1  0
 14 36  1  0
 15 37  1  0
 16 38  1  0
 17 39  1  0
 18 40  1  0
 20 41  1  0
 21 42  1  0
M  END
$$$$
