
     RDKit          3D

 55 58  0  0  0  0  0  0  0  0999 V2000
    8.6408    0.7358    2.4315 C   0  0  0  0  0  0  0  0  0  0  0  0
    8.2181   -0.2211    1.3230 C   0  0  0  0  0  0  0  0  0  0  0  0
    7.1351    0.3862    0.4886 C   0  0  0  0  0  0  0  0  0  0  0  0
    7.4262    1.1376   -0.6110 N   0  0  0  0  0  0  0  0  0  0  0  0
    5.9525    1.6453   -1.1854 S   0  0  0  0  0  0  0  0  0  0  0  0
    5.0084    0.9089   -0.0292 C   0  0  0  0  0  0  0  0  0  0  0  0
    3.5744    0.9626    0.0851 N   0  0  0  0  0  0  0  0  0  0  0  0
    2.9400    0.4227    1.2957 C   0  0  0  0  0  0  0  0  0  0  0  0
    1.4632    0.8213    1.3916 C   0  0  0  0  0  0  0  0  0  0  0  0
    0.7715    0.5656    0.1198 N   0  0  0  0  0  0  0  0  0  0  0  0
   -0.6237    0.1895    0.1356 C   0  0  0  0  0  0  0  0  0  0  0  0
   -1.3051    0.3812    1.1811 O   0  0  0  0  0  0  0  0  0  0  0  0
   -1.3074   -0.3808   -1.0914 C   0  0  2  0  0  0  0  0  0  0  0  0
   -2.2029    0.6407   -1.7848 C   0  0  0  0  0  0  0  0  0  0  0  0
   -3.3492   -0.0720   -2.3566 N   0  0  0  0  0  0  0  0  0  0  0  0
   -3.2747   -1.4621   -1.8963 C   0  0  2  0  0  0  0  0  0  0  0  0
   -4.6273   -1.9710   -1.4538 C   0  0  0  0  0  0  0  0  0  0  0  0
   -5.0261   -3.0744   -1.9164 O   0  0  0  0  0  0  0  0  0  0  0  0
   -5.4436   -1.2825   -0.4832 N   0  0  0  0  0  0  0  0  0  0  0  0
   -5.2825    0.1046   -0.0732 C   0  0  0  0  0  0  0  0  0  0  0  0
   -6.4576    0.4042    0.8489 C   0  0  0  0  0  0  0  0  0  0  0  0
   -7.0398   -0.9498    1.2407 C   0  0  0  0  0  0  0  0  0  0  0  0
   -6.5645   -1.9292    0.1775 C   0  0  0  0  0  0  0  0  0  0  0  0
   -2.2366   -1.5397   -0.7834 C   0  0  0  0  0  0  0  0  0  0  0  0
    1.4477    0.8652   -1.1533 C   0  0  0  0  0  0  0  0  0  0  0  0
    2.7590    1.6282   -0.9388 C   0  0  0  0  0  0  0  0  0  0  0  0
    5.8155    0.2560    0.8338 N   0  0  0  0  0  0  0  0  0  0  0  0
    9.0283    1.6822    1.9970 H   0  0  0  0  0  0  0  0  0  0  0  0
    9.4439    0.2685    3.0395 H   0  0  0  0  0  0  0  0  0  0  0  0
    7.7786    0.9625    3.0949 H   0  0  0  0  0  0  0  0  0  0  0  0
    7.8537   -1.1697    1.7728 H   0  0  0  0  0  0  0  0  0  0  0  0
    9.0957   -0.4563    0.6831 H   0  0  0  0  0  0  0  0  0  0  0  0
    3.0219   -0.6858    1.2836 H   0  0  0  0  0  0  0  0  0  0  0  0
    3.4653    0.8044    2.1984 H   0  0  0  0  0  0  0  0  0  0  0  0
    1.0000    0.2383    2.2175 H   0  0  0  0  0  0  0  0  0  0  0  0
    1.3818    1.9016    1.6401 H   0  0  0  0  0  0  0  0  0  0  0  0
   -0.5554   -0.7481   -1.8225 H   0  0  0  0  0  0  0  0  0  0  0  0
   -2.5866    1.3918   -1.0604 H   0  0  0  0  0  0  0  0  0  0  0  0
   -1.6352    1.1834   -2.5738 H   0  0  0  0  0  0  0  0  0  0  0  0
   -3.2737   -0.0548   -3.4014 H   0  0  0  0  0  0  0  0  0  0  0  0
   -2.9124   -2.1018   -2.7368 H   0  0  0  0  0  0  0  0  0  0  0  0
   -4.3259    0.2346    0.4740 H   0  0  0  0  0  0  0  0  0  0  0  0
   -5.3186    0.7794   -0.9544 H   0  0  0  0  0  0  0  0  0  0  0  0
   -7.2256    0.9914    0.2985 H   0  0  0  0  0  0  0  0  0  0  0  0
   -6.1340    0.9784    1.7442 H   0  0  0  0  0  0  0  0  0  0  0  0
   -6.6374   -1.2523    2.2327 H   0  0  0  0  0  0  0  0  0  0  0  0
   -8.1497   -0.9143    1.2921 H   0  0  0  0  0  0  0  0  0  0  0  0
   -7.3712   -2.1241   -0.5621 H   0  0  0  0  0  0  0  0  0  0  0  0
   -6.2411   -2.8845    0.6456 H   0  0  0  0  0  0  0  0  0  0  0  0
   -1.6912   -2.5089   -0.8066 H   0  0  0  0  0  0  0  0  0  0  0  0
   -2.7141   -1.4290    0.2138 H   0  0  0  0  0  0  0  0  0  0  0  0
    0.7865    1.4849   -1.7967 H   0  0  0  0  0  0  0  0  0  0  0  0
    1.6714   -0.0869   -1.6806 H   0  0  0  0  0  0  0  0  0  0  0  0
    2.5404    2.6679   -0.6124 H   0  0  0  0  0  0  0  0  0  0  0  0
    3.2933    1.6742   -1.9113 H   0  0  0  0  0  0  0  0  0  0  0  0
  1  2  1  0
  2  3  1  0
  3  4  2  0
  4  5  1  0
  5  6  1  0
  6  7  1  0
  7  8  1  0
  8  9  1  0
  9 10  1  0
 10 11  1  0
 11 12  2  0
 11 13  1  0
 13 14  1  0
 14 15  1  0
 15 16  1  0
 16 17  1  0
 17 18  2  0
 17 19  1  0
 19 20  1  0
 20 21  1  0
 21 22  1  0
 22 23  1  0
 16 24  1  0
 10 25  1  0
 25 26  1  0
  6 27  2  0
 27  3  1  0
 26  7  1  0
 24 13  1  0
 23 19  1  0
  1 28  1  0
  1 29  1  0
  1 30  1  0
  2 31  1  0
  2 32  1  0
  8 33  1  0
  8 34  1  0
  9 35  1  0
  9 36  1  0
 13 37  1  6
 14 38  1  0
 14 39  1  0
 15 40  1  0
 16 41  1  6
 20 42  1  0
 20 43  1  0
 21 44  1  0
 21 45  1  0
 22 46  1  0
 22 47  1  0
 23 48  1  0
 23 49  1  0
 24 50  1  0
 24 51  1  0
 25 52  1  0
 25 53  1  0
 26 54  1  0
 26 55  1  0
M  END
$$$$
