
     RDKit          3D

 54 56  0  0  0  0  0  0  0  0999 V2000
    0.6878    0.0000    0.0000 Cl  0  0  0  0  0  0  0  0  0  0  0  0
   -4.6246    3.8440    0.6295 C   0  0  0  0  0  0  0  0  0  0  0  0
   -3.3032    3.2365    0.8602 N   0  0  0  0  0  0  0  0  0  0  0  0
   -2.5195    3.6715    1.9134 C   0  0  0  0  0  0  0  0  0  0  0  0
   -2.9364    4.5727    2.6923 O   0  0  0  0  0  0  0  0  0  0  0  0
   -1.2820    3.1346    2.1267 N   0  0  0  0  0  0  0  0  0  0  0  0
   -0.8254    2.1867    1.2786 C   0  0  0  0  0  0  0  0  0  0  0  0
    0.3654    1.5033    1.3227 C   0  0  0  0  0  0  0  0  0  0  0  0
    0.3055    0.6498    0.2286 C   0  0  0  0  0  0  0  0  0  0  0  0
    1.3223   -0.3086   -0.0935 N   0  0  0  0  0  0  0  0  0  0  0  0
    1.6599   -1.3478    0.8853 C   0  0  0  0  0  0  0  0  0  0  0  0
    2.7115   -2.3100    0.3271 C   0  0  0  0  0  0  0  0  0  0  0  0
    3.9457   -1.5543   -0.1959 C   0  0  0  0  0  0  0  0  0  0  0  0
    3.6082   -0.2753   -1.0431 C   0  0  1  0  0  0  0  0  0  0  0  0
    4.0454    0.9927   -0.2776 C   0  0  0  0  0  0  0  0  0  0  0  0
    4.3295   -0.3082   -2.3228 N   0  0  0  0  0  0  0  0  0  0  0  0
    2.0906   -0.1788   -1.3372 C   0  0  0  0  0  0  0  0  0  0  0  0
   -0.8597    0.7913   -0.4613 N   0  0  0  0  0  0  0  0  0  0  0  0
   -1.3138   -0.0741   -1.5582 C   0  0  0  0  0  0  0  0  0  0  0  0
   -1.7608   -1.4078   -1.0191 C   0  0  0  0  0  0  0  0  0  0  0  0
   -2.9257   -1.5006   -0.2392 C   0  0  0  0  0  0  0  0  0  0  0  0
   -3.3218   -2.7313    0.2932 C   0  0  0  0  0  0  0  0  0  0  0  0
   -2.5586   -3.8768    0.0533 C   0  0  0  0  0  0  0  0  0  0  0  0
   -1.3990   -3.7939   -0.7216 C   0  0  0  0  0  0  0  0  0  0  0  0
   -1.0007   -2.5659   -1.2578 C   0  0  0  0  0  0  0  0  0  0  0  0
   -1.5507    1.7463    0.2123 C   0  0  0  0  0  0  0  0  0  0  0  0
   -2.8225    2.2865   -0.0159 C   0  0  0  0  0  0  0  0  0  0  0  0
   -3.5118    1.9214   -1.0059 O   0  0  0  0  0  0  0  0  0  0  0  0
   -0.6878    0.0000    0.0000 H   0  0  0  0  0  0  0  0  0  0  0  0
   -5.3241    3.1195    0.1603 H   0  0  0  0  0  0  0  0  0  0  0  0
   -5.0960    4.1592    1.5848 H   0  0  0  0  0  0  0  0  0  0  0  0
   -4.5168    4.7284   -0.0330 H   0  0  0  0  0  0  0  0  0  0  0  0
   -0.6940    3.4515    2.9309 H   0  0  0  0  0  0  0  0  0  0  0  0
    1.1604    1.5988    2.0502 H   0  0  0  0  0  0  0  0  0  0  0  0
    2.0505   -0.8732    1.8115 H   0  0  0  0  0  0  0  0  0  0  0  0
    0.7453   -1.9234    1.1450 H   0  0  0  0  0  0  0  0  0  0  0  0
    3.0194   -3.0251    1.1203 H   0  0  0  0  0  0  0  0  0  0  0  0
    2.2616   -2.9006   -0.5010 H   0  0  0  0  0  0  0  0  0  0  0  0
    4.5838   -1.2904    0.6766 H   0  0  0  0  0  0  0  0  0  0  0  0
    4.5454   -2.2736   -0.7955 H   0  0  0  0  0  0  0  0  0  0  0  0
    5.1403    0.9747   -0.0885 H   0  0  0  0  0  0  0  0  0  0  0  0
    3.8143    1.9048   -0.8689 H   0  0  0  0  0  0  0  0  0  0  0  0
    3.5260    1.0657    0.7016 H   0  0  0  0  0  0  0  0  0  0  0  0
    4.0511   -1.1635   -2.8581 H   0  0  0  0  0  0  0  0  0  0  0  0
    5.3573   -0.3862   -2.1406 H   0  0  0  0  0  0  0  0  0  0  0  0
    1.8579    0.7845   -1.8447 H   0  0  0  0  0  0  0  0  0  0  0  0
    1.7925   -0.9939   -2.0305 H   0  0  0  0  0  0  0  0  0  0  0  0
   -2.1353    0.3904   -2.1336 H   0  0  0  0  0  0  0  0  0  0  0  0
   -0.4928   -0.2035   -2.2926 H   0  0  0  0  0  0  0  0  0  0  0  0
   -3.5240   -0.6220   -0.0382 H   0  0  0  0  0  0  0  0  0  0  0  0
   -4.2193   -2.7962    0.8947 H   0  0  0  0  0  0  0  0  0  0  0  0
   -2.8653   -4.8282    0.4682 H   0  0  0  0  0  0  0  0  0  0  0  0
   -0.8072   -4.6812   -0.9057 H   0  0  0  0  0  0  0  0  0  0  0  0
   -0.0987   -2.5206   -1.8534 H   0  0  0  0  0  0  0  0  0  0  0  0
  2  3  1  0
  3  4  1  0
  4  5  2  0
  4  6  1  0
  6  7  1  0
  7  8  1  0
  8  9  2  0
  9 10  1  0
 10 11  1  0
 11 12  1  0
 12 13  1  0
 13 14  1  0
 14 15  1  0
 14 16  1  6
 14 17  1  0
  9 18  1  0
 18 19  1  0
 19 20  1  0
 20 21  2  0
 21 22  1  0
 22 23  2  0
 23 24  1  0
 24 25  2  0
 18 26  1  0
 26 27  1  0
 27 28  2  0
 27  3  1  0
 26  7  2  0
 17 10  1  0
 25 20  1  0
  1 29  1  0
  2 30  1  0
  2 31  1  0
  2 32  1  0
  6 33  1  0
  8 34  1  0
 11 35  1  0
 11 36  1  0
 12 37  1  0
 12 38  1  0
 13 39  1  0
 13 40  1  0
 15 41  1  0
 15 42  1  0
 15 43  1  0
 16 44  1  0
 16 45  1  0
 17 46  1  0
 17 47  1  0
 19 48  1  0
 19 49  1  0
 21 50  1  0
 22 51  1  0
 23 52  1  0
 24 53  1  0
 25 54  1  0
M  END
$$$$
