
     RDKit          3D

 59 60  0  0  0  0  0  0  0  0999 V2000
   -8.6546   -3.2778   -0.2132 C   0  0  0  0  0  0  0  0  0  0  0  0
   -7.1506   -3.0490   -0.1356 C   0  0  0  0  0  0  0  0  0  0  0  0
   -6.7395   -1.3581   -0.5320 S   0  0  0  0  0  0  0  0  0  0  0  0
   -7.2045   -1.0307   -1.9238 O   0  0  0  0  0  0  0  0  0  0  0  0
   -7.4174   -0.4273    0.4347 O   0  0  0  0  0  0  0  0  0  0  0  0
   -4.9941   -1.1524   -0.4286 C   0  0  0  0  0  0  0  0  0  0  0  0
   -4.4028   -0.7506    0.7715 C   0  0  0  0  0  0  0  0  0  0  0  0
   -3.0176   -0.6018    0.8580 C   0  0  0  0  0  0  0  0  0  0  0  0
   -2.1906   -0.8603   -0.2523 C   0  0  0  0  0  0  0  0  0  0  0  0
   -0.7214   -0.6927   -0.0955 C   0  0  0  0  0  0  0  0  0  0  0  0
    0.2002   -1.1284   -0.9780 N   0  0  0  0  0  0  0  0  0  0  0  0
    1.3460   -0.8008   -0.4654 O   0  0  0  0  0  0  0  0  0  0  0  0
    1.1575   -0.1964    0.6814 C   0  0  0  0  0  0  0  0  0  0  0  0
    2.2579    0.3462    1.5551 C   0  0  0  0  0  0  0  0  0  0  0  0
    3.4379   -0.6339    1.5946 C   0  0  0  0  0  0  0  0  0  0  0  0
    2.7087    1.7779    1.1400 C   0  0  2  0  0  0  0  0  0  0  0  0
    1.6345    2.7564    1.3360 N   0  0  0  0  0  0  0  0  0  0  0  0
    3.1911    1.8456   -0.3011 C   0  0  0  0  0  0  0  0  0  0  0  0
    2.2575    1.7760   -1.2906 F   0  0  0  0  0  0  0  0  0  0  0  0
    4.4923    1.9411   -0.6511 C   0  0  0  0  0  0  0  0  0  0  0  0
    5.6424    2.0499    0.2969 C   0  0  0  0  0  0  0  0  0  0  0  0
    6.8569    2.2787   -0.5951 C   0  0  0  0  0  0  0  0  0  0  0  0
    6.4561    1.8400   -2.0021 C   0  0  0  0  0  0  0  0  0  0  0  0
    4.9382    1.9444   -2.0738 C   0  0  0  0  0  0  0  0  0  0  0  0
   -0.1525   -0.0969    0.9759 N   0  0  0  0  0  0  0  0  0  0  0  0
   -2.7968   -1.2697   -1.4680 C   0  0  0  0  0  0  0  0  0  0  0  0
   -1.8849   -1.5846   -2.9421 Cl  0  0  0  0  0  0  0  0  0  0  0  0
   -4.1883   -1.4152   -1.5408 C   0  0  0  0  0  0  0  0  0  0  0  0
    0.7435   -0.0076   -1.5510 O   0  0  0  0  0  0  0  0  0  0  0  0
    0.4686    0.0078   -0.3213 C   0  0  0  0  0  0  0  0  0  0  0  0
    1.4928   -0.0529    0.6189 O   0  0  0  0  0  0  0  0  0  0  0  0
   -0.9570    0.0310    0.1260 C   0  0  0  0  0  0  0  0  0  0  0  0
   -1.4643   -1.2544    0.1078 F   0  0  0  0  0  0  0  0  0  0  0  0
   -1.7052    0.8291   -0.7205 F   0  0  0  0  0  0  0  0  0  0  0  0
   -1.0413    0.5353    1.4110 F   0  0  0  0  0  0  0  0  0  0  0  0
   -9.0237   -3.0683   -1.2395 H   0  0  0  0  0  0  0  0  0  0  0  0
   -8.8824   -4.3352    0.0373 H   0  0  0  0  0  0  0  0  0  0  0  0
   -9.1823   -2.6198    0.5093 H   0  0  0  0  0  0  0  0  0  0  0  0
   -6.7929   -3.2777    0.8906 H   0  0  0  0  0  0  0  0  0  0  0  0
   -6.6351   -3.7243   -0.8508 H   0  0  0  0  0  0  0  0  0  0  0  0
   -5.0126   -0.5558    1.6445 H   0  0  0  0  0  0  0  0  0  0  0  0
   -2.5926   -0.2921    1.8047 H   0  0  0  0  0  0  0  0  0  0  0  0
    1.8628    0.4032    2.5939 H   0  0  0  0  0  0  0  0  0  0  0  0
    4.2128   -0.2711    2.3027 H   0  0  0  0  0  0  0  0  0  0  0  0
    3.0936   -1.6307    1.9448 H   0  0  0  0  0  0  0  0  0  0  0  0
    3.8943   -0.7502    0.5884 H   0  0  0  0  0  0  0  0  0  0  0  0
    3.5291    2.0715    1.8283 H   0  0  0  0  0  0  0  0  0  0  0  0
    0.7983    2.4919    0.7668 H   0  0  0  0  0  0  0  0  0  0  0  0
    1.3454    2.7480    2.3413 H   0  0  0  0  0  0  0  0  0  0  0  0
    5.5135    2.9099    0.9891 H   0  0  0  0  0  0  0  0  0  0  0  0
    5.7549    1.1051    0.8693 H   0  0  0  0  0  0  0  0  0  0  0  0
    7.1108    3.3620   -0.6073 H   0  0  0  0  0  0  0  0  0  0  0  0
    7.7379    1.7066   -0.2314 H   0  0  0  0  0  0  0  0  0  0  0  0
    6.7629    0.7820   -2.1579 H   0  0  0  0  0  0  0  0  0  0  0  0
    6.9408    2.4743   -2.7756 H   0  0  0  0  0  0  0  0  0  0  0  0
    4.6321    2.8959   -2.5601 H   0  0  0  0  0  0  0  0  0  0  0  0
    4.5147    1.0783   -2.6279 H   0  0  0  0  0  0  0  0  0  0  0  0
   -4.6437   -1.7331   -2.4706 H   0  0  0  0  0  0  0  0  0  0  0  0
    2.4629   -0.0884    0.3290 H   0  0  0  0  0  0  0  0  0  0  0  0
  1  2  1  0
  2  3  1  0
  3  4  2  0
  3  5  2  0
  3  6  1  0
  6  7  2  0
  7  8  1  0
  8  9  2  0
  9 10  1  0
 10 11  2  0
 11 12  1  0
 12 13  1  0
 13 14  1  0
 14 15  1  0
 14 16  1  0
 16 17  1  0
 16 18  1  0
 18 19  1  0
 18 20  2  3
 20 21  1  0
 21 22  1  0
 22 23  1  0
 23 24  1  0
 13 25  2  0
  9 26  1  0
 26 27  1  0
 26 28  2  0
 29 30  2  0
 30 31  1  0
 30 32  1  0
 32 33  1  0
 32 34  1  0
 32 35  1  0
 28  6  1  0
 25 10  1  0
 24 20  1  0
  1 36  1  0
  1 37  1  0
  1 38  1  0
  2 39  1  0
  2 40  1  0
  7 41  1  0
  8 42  1  0
 14 43  1  0
 15 44  1  0
 15 45  1  0
 15 46  1  0
 16 47  1  1
 17 48  1  0
 17 49  1  0
 21 50  1  0
 21 51  1  0
 22 52  1  0
 22 53  1  0
 23 54  1  0
 23 55  1  0
 24 56  1  0
 24 57  1  0
 28 58  1  0
 31 59  1  0
M  END
$$$$
