
     RDKit          3D

 34 34  0  0  0  0  0  0  0  0999 V2000
   -4.3119    0.0723   -0.9193 C   0  0  0  0  0  0  0  0  0  0  0  0
   -3.2370    0.4301    0.1085 C   0  0  0  0  0  0  0  0  0  0  0  0
   -1.8871   -0.2826   -0.1537 C   0  0  1  0  0  0  0  0  0  0  0  0
   -1.2157    0.2362   -1.4408 C   0  0  0  0  0  0  0  0  0  0  0  0
   -0.9649   -0.2045    1.1042 C   0  0  2  0  0  0  0  0  0  0  0  0
   -0.7065    1.1649    1.5670 N   0  0  0  0  0  0  0  0  0  0  0  0
    0.3111   -1.0138    0.9366 C   0  0  0  0  0  0  0  0  0  0  0  0
    0.2403   -2.2502    1.1785 O   0  0  0  0  0  0  0  0  0  0  0  0
    1.5636   -0.4768    0.4450 N   0  0  0  0  0  0  0  0  0  0  0  0
    1.8943    0.9345    0.2891 C   0  0  0  0  0  0  0  0  0  0  0  0
    3.3390    0.9740   -0.2007 C   0  0  0  0  0  0  0  0  0  0  0  0
    4.1915    1.2488    0.8567 F   0  0  0  0  0  0  0  0  0  0  0  0
    3.5061    1.9316   -1.1871 F   0  0  0  0  0  0  0  0  0  0  0  0
    3.6232   -0.4230   -0.7418 C   0  0  0  0  0  0  0  0  0  0  0  0
    2.6440   -1.3422   -0.0152 C   0  0  1  0  0  0  0  0  0  0  0  0
    3.2902   -1.9979    1.1346 C   0  0  0  0  0  0  0  0  0  0  0  0
    3.7973   -2.5129    2.0383 N   0  0  0  0  0  0  0  0  0  0  0  0
   -5.2834    0.5069   -0.6024 H   0  0  0  0  0  0  0  0  0  0  0  0
   -4.4281   -1.0296   -0.9955 H   0  0  0  0  0  0  0  0  0  0  0  0
   -4.0601    0.4896   -1.9158 H   0  0  0  0  0  0  0  0  0  0  0  0
   -3.6209    0.1338    1.1092 H   0  0  0  0  0  0  0  0  0  0  0  0
   -3.0969    1.5328    0.1155 H   0  0  0  0  0  0  0  0  0  0  0  0
   -2.1048   -1.3625   -0.3171 H   0  0  0  0  0  0  0  0  0  0  0  0
   -1.0790    1.3366   -1.4152 H   0  0  0  0  0  0  0  0  0  0  0  0
   -0.2338   -0.2534   -1.6010 H   0  0  0  0  0  0  0  0  0  0  0  0
   -1.8368   -0.0138   -2.3252 H   0  0  0  0  0  0  0  0  0  0  0  0
   -1.5220   -0.7183    1.9231 H   0  0  0  0  0  0  0  0  0  0  0  0
   -0.6966    1.8338    0.7666 H   0  0  0  0  0  0  0  0  0  0  0  0
   -1.4932    1.4664    2.1874 H   0  0  0  0  0  0  0  0  0  0  0  0
    1.2294    1.3976   -0.4681 H   0  0  0  0  0  0  0  0  0  0  0  0
    1.8087    1.4656    1.2608 H   0  0  0  0  0  0  0  0  0  0  0  0
    3.3981   -0.4469   -1.8312 H   0  0  0  0  0  0  0  0  0  0  0  0
    4.6884   -0.7132   -0.5994 H   0  0  0  0  0  0  0  0  0  0  0  0
    2.2537   -2.1141   -0.7140 H   0  0  0  0  0  0  0  0  0  0  0  0
  1  2  1  0
  2  3  1  0
  3  4  1  0
  3  5  1  0
  5  6  1  0
  5  7  1  0
  7  8  2  0
  7  9  1  0
  9 10  1  0
 10 11  1  0
 11 12  1  0
 11 13  1  0
 11 14  1  0
 14 15  1  0
 15 16  1  0
 16 17  3  0
 15  9  1  0
  1 18  1  0
  1 19  1  0
  1 20  1  0
  2 21  1  0
  2 22  1  0
  3 23  1  6
  4 24  1  0
  4 25  1  0
  4 26  1  0
  5 27  1  1
  6 28  1  0
  6 29  1  0
 10 30  1  0
 10 31  1  0
 14 32  1  0
 14 33  1  0
 15 34  1  6
M  END
$$$$
