
     RDKit          3D

 48 51  0  0  0  0  0  0  0  0999 V2000
   -2.0413    4.2033    0.2357 C   0  0  0  0  0  0  0  0  0  0  0  0
   -0.9561    3.9854   -0.7717 C   0  0  0  0  0  0  0  0  0  0  0  0
   -0.3599    5.0160   -1.5029 C   0  0  0  0  0  0  0  0  0  0  0  0
    0.8517    4.3603   -2.4883 S   0  0  0  0  0  0  0  0  0  0  0  0
    0.6239    2.7768   -1.9755 C   0  0  0  0  0  0  0  0  0  0  0  0
    1.2879    1.6149   -2.3426 C   0  0  0  0  0  0  0  0  0  0  0  0
    2.2047    1.6694   -3.2078 O   0  0  0  0  0  0  0  0  0  0  0  0
    0.9321    0.4243   -1.7433 N   0  0  0  0  0  0  0  0  0  0  0  0
    1.6509   -0.8251   -2.0828 C   0  0  0  0  0  0  0  0  0  0  0  0
    2.2751   -1.4741   -0.8613 C   0  0  0  0  0  0  0  0  0  0  0  0
    1.9214   -2.7976   -0.5376 C   0  0  0  0  0  0  0  0  0  0  0  0
    2.4594   -3.4238    0.5884 C   0  0  0  0  0  0  0  0  0  0  0  0
    3.3688   -2.7451    1.3986 C   0  0  0  0  0  0  0  0  0  0  0  0
    3.7524   -1.4417    1.0792 C   0  0  0  0  0  0  0  0  0  0  0  0
    3.2204   -0.8011   -0.0490 C   0  0  0  0  0  0  0  0  0  0  0  0
    3.6726    0.5346   -0.3526 C   0  0  0  0  0  0  0  0  0  0  0  0
    4.0411    1.6058   -0.5900 N   0  0  0  0  0  0  0  0  0  0  0  0
   -0.1142    0.4072   -0.8346 C   0  0  0  0  0  0  0  0  0  0  0  0
   -0.5660   -0.8223   -0.2479 N   0  0  0  0  0  0  0  0  0  0  0  0
   -1.5095   -1.6610   -0.9898 C   0  0  0  0  0  0  0  0  0  0  0  0
   -2.9254   -1.4307   -0.4530 C   0  0  0  0  0  0  0  0  0  0  0  0
   -2.9694   -1.6291    1.0700 C   0  0  0  0  0  0  0  0  0  0  0  0
   -1.9400   -0.7304    1.7861 C   0  0  1  0  0  0  0  0  0  0  0  0
   -1.9451   -1.0102    3.2220 N   0  0  0  0  0  0  0  0  0  0  0  0
   -0.5348   -0.9757    1.2089 C   0  0  0  0  0  0  0  0  0  0  0  0
   -0.7497    1.5641   -0.4850 N   0  0  0  0  0  0  0  0  0  0  0  0
   -0.3818    2.7383   -1.0444 C   0  0  0  0  0  0  0  0  0  0  0  0
   -2.8185    3.4168    0.1324 H   0  0  0  0  0  0  0  0  0  0  0  0
   -2.5200    5.1942    0.0864 H   0  0  0  0  0  0  0  0  0  0  0  0
   -1.6111    4.1588    1.2578 H   0  0  0  0  0  0  0  0  0  0  0  0
   -0.6246    6.0636   -1.4482 H   0  0  0  0  0  0  0  0  0  0  0  0
    2.4650   -0.6529   -2.8179 H   0  0  0  0  0  0  0  0  0  0  0  0
    0.9430   -1.5183   -2.5858 H   0  0  0  0  0  0  0  0  0  0  0  0
    1.2179   -3.3455   -1.1515 H   0  0  0  0  0  0  0  0  0  0  0  0
    2.1694   -4.4374    0.8332 H   0  0  0  0  0  0  0  0  0  0  0  0
    3.7838   -3.2327    2.2713 H   0  0  0  0  0  0  0  0  0  0  0  0
    4.4705   -0.9330    1.7116 H   0  0  0  0  0  0  0  0  0  0  0  0
   -1.2335   -2.7298   -0.8608 H   0  0  0  0  0  0  0  0  0  0  0  0
   -1.4791   -1.4278   -2.0766 H   0  0  0  0  0  0  0  0  0  0  0  0
   -3.2509   -0.3968   -0.7021 H   0  0  0  0  0  0  0  0  0  0  0  0
   -3.6266   -2.1415   -0.9405 H   0  0  0  0  0  0  0  0  0  0  0  0
   -3.9913   -1.3873    1.4344 H   0  0  0  0  0  0  0  0  0  0  0  0
   -2.7656   -2.6969    1.3075 H   0  0  0  0  0  0  0  0  0  0  0  0
   -2.2164    0.3363    1.6202 H   0  0  0  0  0  0  0  0  0  0  0  0
   -1.2817   -0.3487    3.6877 H   0  0  0  0  0  0  0  0  0  0  0  0
   -2.8931   -0.7779    3.5983 H   0  0  0  0  0  0  0  0  0  0  0  0
    0.1966   -0.2684    1.6594 H   0  0  0  0  0  0  0  0  0  0  0  0
   -0.2031   -2.0071    1.4593 H   0  0  0  0  0  0  0  0  0  0  0  0
  1  2  1  0
  2  3  2  0
  3  4  1  0
  4  5  1  0
  5  6  1  0
  6  7  2  0
  6  8  1  0
  8  9  1  0
  9 10  1  0
 10 11  2  0
 11 12  1  0
 12 13  2  0
 13 14  1  0
 14 15  2  0
 15 16  1  0
 16 17  3  0
  8 18  1  0
 18 19  1  0
 19 20  1  0
 20 21  1  0
 21 22  1  0
 22 23  1  0
 23 24  1  0
 23 25  1  0
 18 26  2  0
 26 27  1  0
 27  2  1  0
 27  5  2  0
 15 10  1  0
 25 19  1  0
  1 28  1  0
  1 29  1  0
  1 30  1  0
  3 31  1  0
  9 32  1  0
  9 33  1  0
 11 34  1  0
 12 35  1  0
 13 36  1  0
 14 37  1  0
 20 38  1  0
 20 39  1  0
 21 40  1  0
 21 41  1  0
 22 42  1  0
 22 43  1  0
 23 44  1  1
 24 45  1  0
 24 46  1  0
 25 47  1  0
 25 48  1  0
M  END
$$$$
