
     RDKit          3D

 53 56  0  0  0  0  0  0  0  0999 V2000
    6.9074   -1.6558   -0.6944 C   0  0  0  0  0  0  0  0  0  0  0  0
    6.2077   -0.6465    0.0264 O   0  0  0  0  0  0  0  0  0  0  0  0
    4.8243   -0.4213   -0.0579 C   0  0  0  0  0  0  0  0  0  0  0  0
    3.9913   -1.1932   -0.8884 C   0  0  0  0  0  0  0  0  0  0  0  0
    2.6113   -0.9524   -0.9443 C   0  0  0  0  0  0  0  0  0  0  0  0
    2.0542    0.0931   -0.1793 C   0  0  0  0  0  0  0  0  0  0  0  0
    2.8886    0.8638    0.6457 C   0  0  0  0  0  0  0  0  0  0  0  0
    4.2709    0.6107    0.7120 C   0  0  0  0  0  0  0  0  0  0  0  0
    5.1277    1.3632    1.5313 O   0  0  0  0  0  0  0  0  0  0  0  0
    4.7086    2.4363    2.3684 C   0  0  0  0  0  0  0  0  0  0  0  0
    0.5599    0.3578   -0.1846 C   0  0  2  0  0  0  0  0  0  0  0  0
   -0.0758   -0.1337    1.1368 C   0  0  0  0  0  0  0  0  0  0  0  0
   -1.5962    0.1036    1.1402 C   0  0  0  0  0  0  0  0  0  0  0  0
   -2.2045   -0.4387    2.3587 N   0  0  0  0  0  0  0  0  0  0  0  0
   -2.2391   -0.5337   -0.1095 C   0  0  1  0  0  0  0  0  0  0  0  0
   -3.7321   -0.2865   -0.1627 C   0  0  0  0  0  0  0  0  0  0  0  0
   -4.2657    1.0137   -0.2200 C   0  0  0  0  0  0  0  0  0  0  0  0
   -5.6554    1.1929   -0.2578 C   0  0  0  0  0  0  0  0  0  0  0  0
   -6.2384    2.5717   -0.3569 C   0  0  0  0  0  0  0  0  0  0  0  0
   -6.3354    2.9371   -1.6865 F   0  0  0  0  0  0  0  0  0  0  0  0
   -6.4913    0.0690   -0.2678 C   0  0  0  0  0  0  0  0  0  0  0  0
   -5.9278   -1.2063   -0.2113 C   0  0  0  0  0  0  0  0  0  0  0  0
   -4.5781   -1.3540   -0.1596 N   0  0  0  0  0  0  0  0  0  0  0  0
   -1.5512   -0.0191   -1.3925 C   0  0  0  0  0  0  0  0  0  0  0  0
   -0.0894   -0.2372   -1.3787 N   0  0  0  0  0  0  0  0  0  0  0  0
    0.2818   -1.6494   -1.5885 C   0  0  0  0  0  0  0  0  0  0  0  0
    1.7706   -1.7440   -1.9127 C   0  0  0  0  0  0  0  0  0  0  0  0
    6.7998   -1.4889   -1.7870 H   0  0  0  0  0  0  0  0  0  0  0  0
    7.9841   -1.6075   -0.4325 H   0  0  0  0  0  0  0  0  0  0  0  0
    6.5196   -2.6595   -0.4198 H   0  0  0  0  0  0  0  0  0  0  0  0
    4.4092   -1.9809   -1.5013 H   0  0  0  0  0  0  0  0  0  0  0  0
    2.4506    1.6573    1.2364 H   0  0  0  0  0  0  0  0  0  0  0  0
    4.2563    3.2445    1.7557 H   0  0  0  0  0  0  0  0  0  0  0  0
    5.5911    2.8463    2.9008 H   0  0  0  0  0  0  0  0  0  0  0  0
    3.9780    2.0709    3.1206 H   0  0  0  0  0  0  0  0  0  0  0  0
    0.4210    1.4616   -0.2399 H   0  0  0  0  0  0  0  0  0  0  0  0
    0.1457   -1.2104    1.2983 H   0  0  0  0  0  0  0  0  0  0  0  0
    0.3713    0.4235    1.9890 H   0  0  0  0  0  0  0  0  0  0  0  0
   -1.7699    1.2029    1.1220 H   0  0  0  0  0  0  0  0  0  0  0  0
   -1.7937    0.0523    3.1860 H   0  0  0  0  0  0  0  0  0  0  0  0
   -1.9655   -1.4536    2.4462 H   0  0  0  0  0  0  0  0  0  0  0  0
   -2.0833   -1.6340   -0.0555 H   0  0  0  0  0  0  0  0  0  0  0  0
   -3.6117    1.8765   -0.2349 H   0  0  0  0  0  0  0  0  0  0  0  0
   -7.2485    2.6036    0.1043 H   0  0  0  0  0  0  0  0  0  0  0  0
   -5.5969    3.3051    0.1766 H   0  0  0  0  0  0  0  0  0  0  0  0
   -7.5675    0.1786   -0.3184 H   0  0  0  0  0  0  0  0  0  0  0  0
   -6.5644   -2.0809   -0.2121 H   0  0  0  0  0  0  0  0  0  0  0  0
   -1.7402    1.0698   -1.5128 H   0  0  0  0  0  0  0  0  0  0  0  0
   -2.0026   -0.5116   -2.2823 H   0  0  0  0  0  0  0  0  0  0  0  0
    0.0567   -2.2710   -0.6967 H   0  0  0  0  0  0  0  0  0  0  0  0
   -0.2829   -2.0751   -2.4470 H   0  0  0  0  0  0  0  0  0  0  0  0
    2.0750   -2.8133   -1.8978 H   0  0  0  0  0  0  0  0  0  0  0  0
    1.9454   -1.3472   -2.9362 H   0  0  0  0  0  0  0  0  0  0  0  0
  1  2  1  0
  2  3  1  0
  3  4  2  0
  4  5  1  0
  5  6  2  0
  6  7  1  0
  7  8  2  0
  8  9  1  0
  9 10  1  0
  6 11  1  0
 11 12  1  0
 12 13  1  0
 13 14  1  0
 13 15  1  0
 15 16  1  0
 16 17  2  0
 17 18  1  0
 18 19  1  0
 19 20  1  0
 18 21  2  0
 21 22  1  0
 22 23  2  0
 15 24  1  0
 24 25  1  0
 25 26  1  0
 26 27  1  0
  8  3  1  0
 25 11  1  0
 27  5  1  0
 23 16  1  0
  1 28  1  0
  1 29  1  0
  1 30  1  0
  4 31  1  0
  7 32  1  0
 10 33  1  0
 10 34  1  0
 10 35  1  0
 11 36  1  6
 12 37  1  0
 12 38  1  0
 13 39  1  0
 14 40  1  0
 14 41  1  0
 15 42  1  1
 17 43  1  0
 19 44  1  0
 19 45  1  0
 21 46  1  0
 22 47  1  0
 24 48  1  0
 24 49  1  0
 26 50  1  0
 26 51  1  0
 27 52  1  0
 27 53  1  0
M  END
$$$$
