
     RDKit          3D

 78 79  0  0  0  0  0  0  0  0999 V2000
   -1.6113   -1.3549    4.6219 C   0  0  0  0  0  0  0  0  0  0  0  0
   -3.0489   -1.0401    5.0317 C   0  0  0  0  0  0  0  0  0  0  0  0
   -4.0979   -1.7568    4.1638 C   0  0  0  0  0  0  0  0  0  0  0  0
   -4.1694   -1.2182    2.7235 C   0  0  0  0  0  0  0  0  0  0  0  0
   -3.0520   -1.7004    1.9727 O   0  0  0  0  0  0  0  0  0  0  0  0
   -2.6599   -1.2352    0.7068 C   0  0  0  0  0  0  0  0  0  0  0  0
   -1.5614   -1.8443    0.0899 C   0  0  0  0  0  0  0  0  0  0  0  0
   -1.1182   -1.4126   -1.1633 C   0  0  0  0  0  0  0  0  0  0  0  0
   -1.7903   -0.3797   -1.8331 C   0  0  0  0  0  0  0  0  0  0  0  0
   -1.3280    0.0657   -3.1927 C   0  0  0  0  0  0  0  0  0  0  0  0
   -0.1921    0.9766   -3.0768 N   0  0  0  0  0  0  0  0  0  0  0  0
   -0.3545    2.3778   -2.8052 C   0  0  0  0  0  0  0  0  0  0  0  0
   -1.4683    2.8219   -2.4170 O   0  0  0  0  0  0  0  0  0  0  0  0
    0.7759    3.3466   -3.0442 C   0  0  2  0  0  0  0  0  0  0  0  0
    1.0614    3.5080   -4.5384 C   0  0  0  0  0  0  0  0  0  0  0  0
    2.3068    2.6722   -4.8187 C   0  0  0  0  0  0  0  0  0  0  0  0
    2.9995    2.4900   -3.4740 C   0  0  0  0  0  0  0  0  0  0  0  0
    2.0154    2.8494   -2.4635 N   0  0  0  0  0  0  0  0  0  0  0  0
    2.2766    2.8656   -1.0455 C   0  0  0  0  0  0  0  0  0  0  0  0
    1.4128    3.3409   -0.2592 O   0  0  0  0  0  0  0  0  0  0  0  0
    3.5533    2.3125   -0.4643 C   0  0  0  0  0  0  0  0  0  0  0  0
    3.3022    1.0660    0.4127 C   0  0  0  0  0  0  0  0  0  0  0  0
    4.5646    0.5847    0.9830 N   0  0  0  0  0  0  0  0  0  0  0  0
    2.6135   -0.0661   -0.3812 C   0  0  0  0  0  0  0  0  0  0  0  0
    2.4483   -1.3122    0.4543 C   0  0  0  0  0  0  0  0  0  0  0  0
    3.2741   -2.4268    0.2270 C   0  0  0  0  0  0  0  0  0  0  0  0
    3.1410   -3.5759    1.0117 C   0  0  0  0  0  0  0  0  0  0  0  0
    2.1899   -3.6197    2.0334 C   0  0  0  0  0  0  0  0  0  0  0  0
    1.3716   -2.5137    2.2739 C   0  0  0  0  0  0  0  0  0  0  0  0
    1.4966   -1.3617    1.4905 C   0  0  0  0  0  0  0  0  0  0  0  0
    0.6880   -0.3002    1.7381 F   0  0  0  0  0  0  0  0  0  0  0  0
   -2.8924    0.2340   -1.2189 C   0  0  0  0  0  0  0  0  0  0  0  0
   -3.3237   -0.1862    0.0424 C   0  0  0  0  0  0  0  0  0  0  0  0
   -5.4483   -1.6706    2.0778 C   0  0  0  0  0  0  0  0  0  0  0  0
   -5.5691   -2.8578    1.6717 O   0  0  0  0  0  0  0  0  0  0  0  0
   -6.5147   -0.7848    1.9600 O   0  0  0  0  0  0  0  0  0  0  0  0
    0.7554   -0.0125   -1.5452 O   0  0  0  0  0  0  0  0  0  0  0  0
    0.4711   -0.0080   -0.3175 C   0  0  0  0  0  0  0  0  0  0  0  0
    1.4835   -0.1349    0.6289 O   0  0  0  0  0  0  0  0  0  0  0  0
   -0.9556    0.0735    0.1194 C   0  0  0  0  0  0  0  0  0  0  0  0
   -1.5223   -1.1861    0.0720 F   0  0  0  0  0  0  0  0  0  0  0  0
   -1.6584    0.9221   -0.7167 F   0  0  0  0  0  0  0  0  0  0  0  0
   -1.0269    0.5562    1.4134 F   0  0  0  0  0  0  0  0  0  0  0  0
   -1.4615   -2.4521    4.5372 H   0  0  0  0  0  0  0  0  0  0  0  0
   -1.3639   -0.8665    3.6572 H   0  0  0  0  0  0  0  0  0  0  0  0
   -0.9135   -0.9617    5.3909 H   0  0  0  0  0  0  0  0  0  0  0  0
   -3.2121    0.0590    5.0017 H   0  0  0  0  0  0  0  0  0  0  0  0
   -3.1873   -1.3685    6.0848 H   0  0  0  0  0  0  0  0  0  0  0  0
   -3.8989   -2.8513    4.1523 H   0  0  0  0  0  0  0  0  0  0  0  0
   -5.0855   -1.6070    4.6548 H   0  0  0  0  0  0  0  0  0  0  0  0
   -4.1499   -0.1067    2.7599 H   0  0  0  0  0  0  0  0  0  0  0  0
   -1.0471   -2.6563    0.5870 H   0  0  0  0  0  0  0  0  0  0  0  0
   -0.2587   -1.8914   -1.6164 H   0  0  0  0  0  0  0  0  0  0  0  0
   -1.0225   -0.8256   -3.7832 H   0  0  0  0  0  0  0  0  0  0  0  0
   -2.1515    0.5546   -3.7582 H   0  0  0  0  0  0  0  0  0  0  0  0
    0.7568    0.6054   -3.3052 H   0  0  0  0  0  0  0  0  0  0  0  0
    0.5261    4.3398   -2.6071 H   0  0  0  0  0  0  0  0  0  0  0  0
    0.2099    3.1921   -5.1815 H   0  0  0  0  0  0  0  0  0  0  0  0
    1.2861    4.5758   -4.7553 H   0  0  0  0  0  0  0  0  0  0  0  0
    2.9734    3.1754   -5.5525 H   0  0  0  0  0  0  0  0  0  0  0  0
    2.0057    1.6812   -5.2239 H   0  0  0  0  0  0  0  0  0  0  0  0
    3.8766    3.1693   -3.4009 H   0  0  0  0  0  0  0  0  0  0  0  0
    3.3202    1.4336   -3.3453 H   0  0  0  0  0  0  0  0  0  0  0  0
    4.2880    2.0653   -1.2565 H   0  0  0  0  0  0  0  0  0  0  0  0
    4.0160    3.1068    0.1605 H   0  0  0  0  0  0  0  0  0  0  0  0
    2.6349    1.3629    1.2523 H   0  0  0  0  0  0  0  0  0  0  0  0
    4.9770    1.3396    1.5781 H   0  0  0  0  0  0  0  0  0  0  0  0
    5.2418    0.3859    0.2104 H   0  0  0  0  0  0  0  0  0  0  0  0
    1.6078    0.2655   -0.7189 H   0  0  0  0  0  0  0  0  0  0  0  0
    3.2029   -0.2901   -1.2977 H   0  0  0  0  0  0  0  0  0  0  0  0
    4.0223   -2.4063   -0.5556 H   0  0  0  0  0  0  0  0  0  0  0  0
    3.7779   -4.4317    0.8294 H   0  0  0  0  0  0  0  0  0  0  0  0
    2.0886   -4.5098    2.6407 H   0  0  0  0  0  0  0  0  0  0  0  0
    0.6378   -2.5519    3.0672 H   0  0  0  0  0  0  0  0  0  0  0  0
   -3.4242    1.0339   -1.7187 H   0  0  0  0  0  0  0  0  0  0  0  0
   -4.1765    0.3085    0.4845 H   0  0  0  0  0  0  0  0  0  0  0  0
   -7.3876   -1.0764    1.5370 H   0  0  0  0  0  0  0  0  0  0  0  0
    2.4532   -0.2103    0.3456 H   0  0  0  0  0  0  0  0  0  0  0  0
  1  2  1  0
  2  3  1  0
  3  4  1  0
  4  5  1  0
  5  6  1  0
  6  7  2  0
  7  8  1  0
  8  9  2  0
  9 10  1  0
 10 11  1  0
 11 12  1  0
 12 13  2  0
 12 14  1  0
 14 15  1  0
 15 16  1  0
 16 17  1  0
 17 18  1  0
 18 19  1  0
 19 20  2  0
 19 21  1  0
 21 22  1  0
 22 23  1  0
 22 24  1  0
 24 25  1  0
 25 26  2  0
 26 27  1  0
 27 28  2  0
 28 29  1  0
 29 30  2  0
 30 31  1  0
  9 32  1  0
 32 33  2  0
  4 34  1  0
 34 35  2  0
 34 36  1  0
 37 38  2  0
 38 39  1  0
 38 40  1  0
 40 41  1  0
 40 42  1  0
 40 43  1  0
 33  6  1  0
 18 14  1  0
 30 25  1  0
  1 44  1  0
  1 45  1  0
  1 46  1  0
  2 47  1  0
  2 48  1  0
  3 49  1  0
  3 50  1  0
  4 51  1  0
  7 52  1  0
  8 53  1  0
 10 54  1  0
 10 55  1  0
 11 56  1  0
 14 57  1  1
 15 58  1  0
 15 59  1  0
 16 60  1  0
 16 61  1  0
 17 62  1  0
 17 63  1  0
 21 64  1  0
 21 65  1  0
 22 66  1  0
 23 67  1  0
 23 68  1  0
 24 69  1  0
 24 70  1  0
 26 71  1  0
 27 72  1  0
 28 73  1  0
 29 74  1  0
 32 75  1  0
 33 76  1  0
 36 77  1  0
 39 78  1  0
M  END
$$$$
