
     RDKit          3D

 45 46  0  0  0  0  0  0  0  0999 V2000
    0.5421    4.6112   -2.7327 N   0  0  0  0  0  0  0  0  0  0  0  0
   -0.2433    3.4976   -2.2104 C   0  0  0  0  0  0  0  0  0  0  0  0
    0.5054    2.8201   -1.0563 C   0  0  0  0  0  0  0  0  0  0  0  0
   -0.2625    1.6048   -0.5083 C   0  0  2  0  0  0  0  0  0  0  0  0
   -1.5324    2.0597    0.0980 N   0  0  0  0  0  0  0  0  0  0  0  0
   -2.6150    1.0668    0.0135 C   0  0  0  0  0  0  0  0  0  0  0  0
   -2.3270   -0.1689    0.8306 C   0  0  0  0  0  0  0  0  0  0  0  0
   -2.0495   -1.3915    0.1963 C   0  0  0  0  0  0  0  0  0  0  0  0
   -1.7719   -2.5315    0.9558 C   0  0  0  0  0  0  0  0  0  0  0  0
   -1.7640   -2.4587    2.3513 C   0  0  0  0  0  0  0  0  0  0  0  0
   -2.0361   -1.2459    2.9897 C   0  0  0  0  0  0  0  0  0  0  0  0
   -2.3202   -0.1045    2.2339 C   0  0  0  0  0  0  0  0  0  0  0  0
    0.6109    0.8770    0.5041 C   0  0  0  0  0  0  0  0  0  0  0  0
    0.7972    1.4165    1.6302 O   0  0  0  0  0  0  0  0  0  0  0  0
    1.2744   -0.3740    0.1975 N   0  0  0  0  0  0  0  0  0  0  0  0
    2.0254   -1.0683    1.2590 C   0  0  0  0  0  0  0  0  0  0  0  0
    1.9464   -2.5979    1.1116 C   0  0  0  0  0  0  0  0  0  0  0  0
    2.0133   -3.0989   -0.3452 C   0  0  0  0  0  0  0  0  0  0  0  0
    2.3842   -1.9948   -1.3346 C   0  0  0  0  0  0  0  0  0  0  0  0
    1.4108   -0.8211   -1.2005 C   0  0  0  0  0  0  0  0  0  0  0  0
    0.5503    5.3710   -2.0136 H   0  0  0  0  0  0  0  0  0  0  0  0
    0.0363    4.9951   -3.5635 H   0  0  0  0  0  0  0  0  0  0  0  0
   -0.4106    2.7589   -3.0250 H   0  0  0  0  0  0  0  0  0  0  0  0
   -1.2332    3.8686   -1.8622 H   0  0  0  0  0  0  0  0  0  0  0  0
    0.6692    3.5580   -0.2396 H   0  0  0  0  0  0  0  0  0  0  0  0
    1.5018    2.4921   -1.4271 H   0  0  0  0  0  0  0  0  0  0  0  0
   -0.4845    0.9414   -1.3700 H   0  0  0  0  0  0  0  0  0  0  0  0
   -1.4072    2.3815    1.0861 H   0  0  0  0  0  0  0  0  0  0  0  0
   -2.8072    0.8084   -1.0513 H   0  0  0  0  0  0  0  0  0  0  0  0
   -3.5521    1.5303    0.3903 H   0  0  0  0  0  0  0  0  0  0  0  0
   -2.0451   -1.4622   -0.8841 H   0  0  0  0  0  0  0  0  0  0  0  0
   -1.5556   -3.4701    0.4622 H   0  0  0  0  0  0  0  0  0  0  0  0
   -1.5432   -3.3412    2.9375 H   0  0  0  0  0  0  0  0  0  0  0  0
   -2.0277   -1.1904    4.0705 H   0  0  0  0  0  0  0  0  0  0  0  0
   -2.5310    0.8290    2.7406 H   0  0  0  0  0  0  0  0  0  0  0  0
    1.6335   -0.8036    2.2652 H   0  0  0  0  0  0  0  0  0  0  0  0
    3.0884   -0.7460    1.2153 H   0  0  0  0  0  0  0  0  0  0  0  0
    2.7780   -3.0494    1.6952 H   0  0  0  0  0  0  0  0  0  0  0  0
    1.0023   -2.9575    1.5723 H   0  0  0  0  0  0  0  0  0  0  0  0
    2.7562   -3.9221   -0.4239 H   0  0  0  0  0  0  0  0  0  0  0  0
    1.0245   -3.5193   -0.6344 H   0  0  0  0  0  0  0  0  0  0  0  0
    3.4230   -1.6484   -1.1401 H   0  0  0  0  0  0  0  0  0  0  0  0
    2.3441   -2.3942   -2.3710 H   0  0  0  0  0  0  0  0  0  0  0  0
    0.4186   -1.1429   -1.5826 H   0  0  0  0  0  0  0  0  0  0  0  0
    1.7830    0.0153   -1.8303 H   0  0  0  0  0  0  0  0  0  0  0  0
  1  2  1  0
  2  3  1  0
  3  4  1  0
  4  5  1  0
  5  6  1  0
  6  7  1  0
  7  8  2  0
  8  9  1  0
  9 10  2  0
 10 11  1  0
 11 12  2  0
  4 13  1  0
 13 14  2  0
 13 15  1  0
 15 16  1  0
 16 17  1  0
 17 18  1  0
 18 19  1  0
 19 20  1  0
 12  7  1  0
 20 15  1  0
  1 21  1  0
  1 22  1  0
  2 23  1  0
  2 24  1  0
  3 25  1  0
  3 26  1  0
  4 27  1  6
  5 28  1  0
  6 29  1  0
  6 30  1  0
  8 31  1  0
  9 32  1  0
 10 33  1  0
 11 34  1  0
 12 35  1  0
 16 36  1  0
 16 37  1  0
 17 38  1  0
 17 39  1  0
 18 40  1  0
 18 41  1  0
 19 42  1  0
 19 43  1  0
 20 44  1  0
 20 45  1  0
M  END
$$$$
