
     RDKit          3D

 53 56  0  0  0  0  0  0  0  0999 V2000
    0.6878    0.0000    0.0000 Cl  0  0  0  0  0  0  0  0  0  0  0  0
   -3.5931   -2.4577   -0.7042 N   0  0  0  0  0  0  0  0  0  0  0  0
   -2.5020   -3.4289   -0.5807 C   0  0  2  0  0  0  0  0  0  0  0  0
   -2.5436   -4.1077    0.8185 C   0  0  0  0  0  0  0  0  0  0  0  0
   -1.4196   -3.6585    1.7711 C   0  0  0  0  0  0  0  0  0  0  0  0
   -1.1383   -2.1570    1.6483 C   0  0  0  0  0  0  0  0  0  0  0  0
   -0.8838   -1.7751    0.2531 N   0  0  0  0  0  0  0  0  0  0  0  0
   -0.6194   -0.3964   -0.0478 C   0  0  0  0  0  0  0  0  0  0  0  0
   -1.3806    0.6089    0.4546 N   0  0  0  0  0  0  0  0  0  0  0  0
   -0.8048    1.7105   -0.0606 C   0  0  0  0  0  0  0  0  0  0  0  0
   -1.1741    3.0404    0.1398 C   0  0  0  0  0  0  0  0  0  0  0  0
   -2.2682    3.4093    0.9355 C   0  0  0  0  0  0  0  0  0  0  0  0
   -2.5845    4.7615    1.0964 C   0  0  0  0  0  0  0  0  0  0  0  0
   -1.8144    5.7459    0.4682 C   0  0  0  0  0  0  0  0  0  0  0  0
   -0.7203    5.3875   -0.3265 C   0  0  0  0  0  0  0  0  0  0  0  0
   -0.3868    4.0353   -0.5001 C   0  0  0  0  0  0  0  0  0  0  0  0
    0.6881    3.6731   -1.2766 N   0  0  0  0  0  0  0  0  0  0  0  0
    1.0352    2.3623   -1.4603 C   0  0  0  0  0  0  0  0  0  0  0  0
    2.0226    2.0655   -2.1833 O   0  0  0  0  0  0  0  0  0  0  0  0
    0.2652    1.3743   -0.8358 C   0  0  0  0  0  0  0  0  0  0  0  0
    0.4041    0.0326   -0.8383 N   0  0  0  0  0  0  0  0  0  0  0  0
    1.5058   -0.7570   -1.4053 C   0  0  0  0  0  0  0  0  0  0  0  0
    2.7938   -0.5304   -0.6405 C   0  0  0  0  0  0  0  0  0  0  0  0
    2.7741   -0.5650    0.7673 C   0  0  0  0  0  0  0  0  0  0  0  0
    3.9477   -0.3821    1.5013 C   0  0  0  0  0  0  0  0  0  0  0  0
    5.1604   -0.1823    0.8428 C   0  0  0  0  0  0  0  0  0  0  0  0
    5.2045   -0.1765   -0.5521 C   0  0  0  0  0  0  0  0  0  0  0  0
    4.0347   -0.3594   -1.3005 C   0  0  0  0  0  0  0  0  0  0  0  0
    4.1810   -0.3838   -3.0557 Cl  0  0  0  0  0  0  0  0  0  0  0  0
   -1.1543   -2.7296   -0.8296 C   0  0  0  0  0  0  0  0  0  0  0  0
   -0.6878    0.0000    0.0000 H   0  0  0  0  0  0  0  0  0  0  0  0
   -3.5672   -2.0480   -1.6665 H   0  0  0  0  0  0  0  0  0  0  0  0
   -4.5009   -2.9740   -0.6424 H   0  0  0  0  0  0  0  0  0  0  0  0
   -2.6335   -4.2127   -1.3617 H   0  0  0  0  0  0  0  0  0  0  0  0
   -3.5222   -3.9171    1.3118 H   0  0  0  0  0  0  0  0  0  0  0  0
   -2.4671   -5.2096    0.6906 H   0  0  0  0  0  0  0  0  0  0  0  0
   -0.4894   -4.2197    1.5328 H   0  0  0  0  0  0  0  0  0  0  0  0
   -1.6980   -3.9017    2.8193 H   0  0  0  0  0  0  0  0  0  0  0  0
   -0.2514   -1.9045    2.2683 H   0  0  0  0  0  0  0  0  0  0  0  0
   -2.0119   -1.5891    2.0363 H   0  0  0  0  0  0  0  0  0  0  0  0
   -2.8743    2.6591    1.4286 H   0  0  0  0  0  0  0  0  0  0  0  0
   -3.4289    5.0481    1.7098 H   0  0  0  0  0  0  0  0  0  0  0  0
   -2.0662    6.7905    0.5981 H   0  0  0  0  0  0  0  0  0  0  0  0
   -0.1347    6.1628   -0.8046 H   0  0  0  0  0  0  0  0  0  0  0  0
    1.2610    4.4134   -1.7435 H   0  0  0  0  0  0  0  0  0  0  0  0
    1.6032   -0.4959   -2.4776 H   0  0  0  0  0  0  0  0  0  0  0  0
    1.2793   -1.8386   -1.3674 H   0  0  0  0  0  0  0  0  0  0  0  0
    1.8487   -0.7324    1.3020 H   0  0  0  0  0  0  0  0  0  0  0  0
    3.9170   -0.4004    2.5831 H   0  0  0  0  0  0  0  0  0  0  0  0
    6.0693   -0.0424    1.4136 H   0  0  0  0  0  0  0  0  0  0  0  0
    6.1541   -0.0368   -1.0531 H   0  0  0  0  0  0  0  0  0  0  0  0
   -0.3467   -3.4927   -0.8589 H   0  0  0  0  0  0  0  0  0  0  0  0
   -1.1698   -2.2178   -1.8176 H   0  0  0  0  0  0  0  0  0  0  0  0
  2  3  1  0
  3  4  1  0
  4  5  1  0
  5  6  1  0
  6  7  1  0
  7  8  1  0
  8  9  2  0
  9 10  1  0
 10 11  1  0
 11 12  2  0
 12 13  1  0
 13 14  2  0
 14 15  1  0
 15 16  2  0
 16 17  1  0
 17 18  1  0
 18 19  2  0
 18 20  1  0
 20 21  1  0
 21 22  1  0
 22 23  1  0
 23 24  2  0
 24 25  1  0
 25 26  2  0
 26 27  1  0
 27 28  2  0
 28 29  1  0
  7 30  1  0
 30  3  1  0
 21  8  1  0
 28 23  1  0
 20 10  2  0
 16 11  1  0
  1 31  1  0
  2 32  1  0
  2 33  1  0
  3 34  1  6
  4 35  1  0
  4 36  1  0
  5 37  1  0
  5 38  1  0
  6 39  1  0
  6 40  1  0
 12 41  1  0
 13 42  1  0
 14 43  1  0
 15 44  1  0
 17 45  1  0
 22 46  1  0
 22 47  1  0
 24 48  1  0
 25 49  1  0
 26 50  1  0
 27 51  1  0
 30 52  1  0
 30 53  1  0
M  END
$$$$
