
     RDKit          3D

 41 42  0  0  0  0  0  0  0  0999 V2000
   -2.4209   -2.7701   -1.3990 N   0  0  0  0  0  0  0  0  0  0  0  0
   -2.6835   -1.9692   -0.6060 C   0  0  0  0  0  0  0  0  0  0  0  0
   -3.0172   -0.9500    0.4031 C   0  0  2  0  0  0  0  0  0  0  0  0
   -4.5132   -0.9742    0.7289 C   0  0  0  0  0  0  0  0  0  0  0  0
   -4.9422    0.4880    0.7939 C   0  0  0  0  0  0  0  0  0  0  0  0
   -3.9150    1.2564   -0.0356 C   0  0  2  0  0  0  0  0  0  0  0  0
   -4.4167    1.5216   -1.3937 C   0  0  0  0  0  0  0  0  0  0  0  0
   -4.8105    1.7297   -2.4618 N   0  0  0  0  0  0  0  0  0  0  0  0
   -2.7439    0.3926   -0.1019 N   0  0  0  0  0  0  0  0  0  0  0  0
   -1.4346    0.8944   -0.4485 C   0  0  0  0  0  0  0  0  0  0  0  0
   -1.3230    2.0667   -0.9024 O   0  0  0  0  0  0  0  0  0  0  0  0
   -0.2052    0.0315   -0.3210 C   0  0  0  0  0  0  0  0  0  0  0  0
    1.0172    0.8543   -0.3734 N   0  0  0  0  0  0  0  0  0  0  0  0
    2.2620    0.1816    0.0853 C   0  0  0  0  0  0  0  0  0  0  0  0
    2.4835   -1.1686   -0.6611 C   0  0  0  0  0  0  0  0  0  0  0  0
    2.4356   -0.9797   -2.0497 O   0  0  0  0  0  0  0  0  0  0  0  0
    3.4444    1.1511   -0.2031 C   0  0  0  0  0  0  0  0  0  0  0  0
    4.7210    0.7760    0.5630 C   0  0  0  0  0  0  0  0  0  0  0  0
    4.4753    0.7225    1.9528 O   0  0  0  0  0  0  0  0  0  0  0  0
    3.5743   -0.3280    2.2350 C   0  0  0  0  0  0  0  0  0  0  0  0
    2.1930   -0.0509    1.6221 C   0  0  0  0  0  0  0  0  0  0  0  0
   -2.4303   -1.1307    1.3293 H   0  0  0  0  0  0  0  0  0  0  0  0
   -5.1000   -1.4803   -0.0715 H   0  0  0  0  0  0  0  0  0  0  0  0
   -4.7069   -1.4909    1.6942 H   0  0  0  0  0  0  0  0  0  0  0  0
   -4.8883    0.8332    1.8502 H   0  0  0  0  0  0  0  0  0  0  0  0
   -5.9869    0.6237    0.4342 H   0  0  0  0  0  0  0  0  0  0  0  0
   -3.6656    2.2180    0.4642 H   0  0  0  0  0  0  0  0  0  0  0  0
   -0.2678   -0.5160    0.6380 H   0  0  0  0  0  0  0  0  0  0  0  0
   -0.2076   -0.7011   -1.1564 H   0  0  0  0  0  0  0  0  0  0  0  0
    1.1428    1.1715   -1.3647 H   0  0  0  0  0  0  0  0  0  0  0  0
    3.4635   -1.6144   -0.3893 H   0  0  0  0  0  0  0  0  0  0  0  0
    1.7057   -1.9055   -0.3606 H   0  0  0  0  0  0  0  0  0  0  0  0
    2.5602   -1.8765   -2.4560 H   0  0  0  0  0  0  0  0  0  0  0  0
    3.1547    2.1804    0.1061 H   0  0  0  0  0  0  0  0  0  0  0  0
    3.6673    1.1889   -1.2916 H   0  0  0  0  0  0  0  0  0  0  0  0
    5.4822    1.5626    0.3764 H   0  0  0  0  0  0  0  0  0  0  0  0
    5.1588   -0.1765    0.1905 H   0  0  0  0  0  0  0  0  0  0  0  0
    3.9770   -1.3095    1.8978 H   0  0  0  0  0  0  0  0  0  0  0  0
    3.4589   -0.3984    3.3372 H   0  0  0  0  0  0  0  0  0  0  0  0
    1.7694    0.8538    2.1120 H   0  0  0  0  0  0  0  0  0  0  0  0
    1.5325   -0.9084    1.8700 H   0  0  0  0  0  0  0  0  0  0  0  0
  1  2  3  0
  2  3  1  0
  3  4  1  0
  4  5  1  0
  5  6  1  0
  6  7  1  0
  7  8  3  0
  6  9  1  0
  9 10  1  0
 10 11  2  0
 10 12  1  0
 12 13  1  0
 13 14  1  0
 14 15  1  0
 15 16  1  0
 14 17  1  0
 17 18  1  0
 18 19  1  0
 19 20  1  0
 20 21  1  0
  9  3  1  0
 21 14  1  0
  3 22  1  1
  4 23  1  0
  4 24  1  0
  5 25  1  0
  5 26  1  0
  6 27  1  1
 12 28  1  0
 12 29  1  0
 13 30  1  0
 15 31  1  0
 15 32  1  0
 16 33  1  0
 17 34  1  0
 17 35  1  0
 18 36  1  0
 18 37  1  0
 20 38  1  0
 20 39  1  0
 21 40  1  0
 21 41  1  0
M  END
$$$$
