
     RDKit          3D

 48 49  0  0  0  0  0  0  0  0999 V2000
    1.9266   -0.9509    1.8996 C   0  0  0  0  0  0  0  0  0  0  0  0
    2.2936   -0.8651    0.4161 C   0  0  0  0  0  0  0  0  0  0  0  0
    3.7751   -0.6753    0.2602 C   0  0  0  0  0  0  0  0  0  0  0  0
    4.7146   -1.6011    0.5325 N   0  0  0  0  0  0  0  0  0  0  0  0
    5.8876   -1.0418    0.2620 N   0  0  0  0  0  0  0  0  0  0  0  0
    5.6415    0.2138   -0.1686 C   0  0  0  0  0  0  0  0  0  0  0  0
    6.7061    1.1769   -0.5966 C   0  0  0  0  0  0  0  0  0  0  0  0
    6.4512    1.6119   -1.8837 F   0  0  0  0  0  0  0  0  0  0  0  0
    6.7198    2.2617    0.2598 F   0  0  0  0  0  0  0  0  0  0  0  0
    7.9453    0.5631   -0.5664 F   0  0  0  0  0  0  0  0  0  0  0  0
    4.3211    0.4763   -0.1593 N   0  0  0  0  0  0  0  0  0  0  0  0
    3.5869    1.6451   -0.6417 C   0  0  0  0  0  0  0  0  0  0  0  0
    2.1540    1.6185   -0.0942 C   0  0  0  0  0  0  0  0  0  0  0  0
    1.5888    0.2630   -0.2268 N   0  0  0  0  0  0  0  0  0  0  0  0
    0.4771    0.0363   -1.1175 C   0  0  0  0  0  0  0  0  0  0  0  0
    0.3530    0.7464   -2.1524 O   0  0  0  0  0  0  0  0  0  0  0  0
   -0.5773   -0.9994   -0.8253 C   0  0  0  0  0  0  0  0  0  0  0  0
   -1.9289   -0.3444   -0.4633 C   0  0  2  0  0  0  0  0  0  0  0  0
   -1.8335    0.4263    0.7817 N   0  0  0  0  0  0  0  0  0  0  0  0
   -3.0245   -1.4190   -0.3316 C   0  0  0  0  0  0  0  0  0  0  0  0
   -4.3802   -0.7993   -0.0947 C   0  0  0  0  0  0  0  0  0  0  0  0
   -5.1271   -0.3178   -1.1836 C   0  0  0  0  0  0  0  0  0  0  0  0
   -6.3722    0.2836   -0.9763 C   0  0  0  0  0  0  0  0  0  0  0  0
   -7.0859    0.7415   -2.0346 F   0  0  0  0  0  0  0  0  0  0  0  0
   -6.8786    0.4158    0.3200 C   0  0  0  0  0  0  0  0  0  0  0  0
   -8.0854    1.0001    0.5226 F   0  0  0  0  0  0  0  0  0  0  0  0
   -6.1386   -0.0507    1.4099 C   0  0  0  0  0  0  0  0  0  0  0  0
   -4.8923   -0.6533    1.2088 C   0  0  0  0  0  0  0  0  0  0  0  0
   -4.1875   -1.0896    2.2835 F   0  0  0  0  0  0  0  0  0  0  0  0
    0.6878    0.0000    0.0000 Cl  0  0  0  0  0  0  0  0  0  0  0  0
    2.2601   -0.0412    2.4426 H   0  0  0  0  0  0  0  0  0  0  0  0
    2.4102   -1.8384    2.3606 H   0  0  0  0  0  0  0  0  0  0  0  0
    0.8292   -1.0526    2.0205 H   0  0  0  0  0  0  0  0  0  0  0  0
    2.0282   -1.8227   -0.0823 H   0  0  0  0  0  0  0  0  0  0  0  0
    3.5572    1.6221   -1.7522 H   0  0  0  0  0  0  0  0  0  0  0  0
    4.0930    2.5779   -0.3140 H   0  0  0  0  0  0  0  0  0  0  0  0
    2.1690    1.9033    0.9794 H   0  0  0  0  0  0  0  0  0  0  0  0
    1.5350    2.3743   -0.6245 H   0  0  0  0  0  0  0  0  0  0  0  0
   -0.7012   -1.6253   -1.7357 H   0  0  0  0  0  0  0  0  0  0  0  0
   -0.2665   -1.6770   -0.0052 H   0  0  0  0  0  0  0  0  0  0  0  0
   -2.2207    0.3440   -1.2890 H   0  0  0  0  0  0  0  0  0  0  0  0
   -1.1863    1.2349    0.6388 H   0  0  0  0  0  0  0  0  0  0  0  0
   -1.4310   -0.1758    1.5362 H   0  0  0  0  0  0  0  0  0  0  0  0
   -3.0652   -2.0243   -1.2640 H   0  0  0  0  0  0  0  0  0  0  0  0
   -2.7689   -2.1218    0.4916 H   0  0  0  0  0  0  0  0  0  0  0  0
   -4.7422   -0.4077   -2.1921 H   0  0  0  0  0  0  0  0  0  0  0  0
   -6.5301    0.0573    2.4133 H   0  0  0  0  0  0  0  0  0  0  0  0
   -0.6878    0.0000    0.0000 H   0  0  0  0  0  0  0  0  0  0  0  0
  1  2  1  0
  2  3  1  0
  3  4  2  0
  4  5  1  0
  5  6  2  0
  6  7  1  0
  7  8  1  0
  7  9  1  0
  7 10  1  0
  6 11  1  0
 11 12  1  0
 12 13  1  0
 13 14  1  0
 14 15  1  0
 15 16  2  0
 15 17  1  0
 17 18  1  0
 18 19  1  0
 18 20  1  0
 20 21  1  0
 21 22  2  0
 22 23  1  0
 23 24  1  0
 23 25  2  0
 25 26  1  0
 25 27  1  0
 27 28  2  0
 28 29  1  0
 14  2  1  0
 28 21  1  0
 11  3  1  0
  1 31  1  0
  1 32  1  0
  1 33  1  0
  2 34  1  0
 12 35  1  0
 12 36  1  0
 13 37  1  0
 13 38  1  0
 17 39  1  0
 17 40  1  0
 18 41  1  6
 19 42  1  0
 19 43  1  0
 20 44  1  0
 20 45  1  0
 22 46  1  0
 27 47  1  0
 30 48  1  0
M  END
$$$$
