
     RDKit          3D

 63 63  0  0  0  0  0  0  0  0999 V2000
    1.2365    5.5337    0.3052 C   0  0  0  0  0  0  0  0  0  0  0  0
    0.7836    4.1083    0.1944 C   0  0  0  0  0  0  0  0  0  0  0  0
    0.3877    3.5866   -1.0468 C   0  0  0  0  0  0  0  0  0  0  0  0
   -0.0629    2.2672   -1.1450 C   0  0  0  0  0  0  0  0  0  0  0  0
   -0.1273    1.4570   -0.0020 C   0  0  0  0  0  0  0  0  0  0  0  0
   -0.5902    0.0524   -0.1091 C   0  0  0  0  0  0  0  0  0  0  0  0
    0.3180   -0.9623   -0.5112 C   0  0  0  0  0  0  0  0  0  0  0  0
    1.7713   -0.6305   -0.8182 C   0  0  0  0  0  0  0  0  0  0  0  0
    2.6204   -0.6438    0.4579 C   0  0  0  0  0  0  0  0  0  0  0  0
    3.9737   -0.0703    0.1899 C   0  0  0  0  0  0  0  0  0  0  0  0
    5.0219   -0.8003   -0.2478 N   0  0  0  0  0  0  0  0  0  0  0  0
    6.1159   -0.0258   -0.4826 C   0  0  0  0  0  0  0  0  0  0  0  0
    7.3784   -0.6053   -0.9602 C   0  0  0  0  0  0  0  0  0  0  0  0
    8.3785    0.1314   -1.1748 O   0  0  0  0  0  0  0  0  0  0  0  0
    7.4708   -1.9766   -1.1772 O   0  0  0  0  0  0  0  0  0  0  0  0
    5.9361    1.3368   -0.2456 C   0  0  0  0  0  0  0  0  0  0  0  0
    4.3527    1.5659    0.2720 S   0  0  0  0  0  0  0  0  0  0  0  0
   -0.1419   -2.2968   -0.5560 C   0  0  0  0  0  0  0  0  0  0  0  0
    0.7371   -3.4412   -0.9737 C   0  0  0  0  0  0  0  0  0  0  0  0
   -1.4270   -2.5760   -0.2294 N   0  0  0  0  0  0  0  0  0  0  0  0
   -2.3290   -1.6364    0.1507 C   0  0  0  0  0  0  0  0  0  0  0  0
   -3.7203   -2.1291    0.4845 C   0  0  0  0  0  0  0  0  0  0  0  0
   -4.5105   -2.5271   -0.7815 C   0  0  0  0  0  0  0  0  0  0  0  0
   -4.8357   -1.3120   -1.6611 C   0  0  0  0  0  0  0  0  0  0  0  0
   -5.8047   -3.2527   -0.3931 C   0  0  0  0  0  0  0  0  0  0  0  0
   -1.9381   -0.2739    0.1976 C   0  0  0  0  0  0  0  0  0  0  0  0
   -2.9088    0.8167    0.6220 C   0  0  0  0  0  0  0  0  0  0  0  0
   -2.8248    1.0310    2.0631 N   0  0  0  0  0  0  0  0  0  0  0  0
    0.2356    1.9877    1.2439 C   0  0  0  0  0  0  0  0  0  0  0  0
    0.6867    3.3066    1.3421 C   0  0  0  0  0  0  0  0  0  0  0  0
    0.6878    0.0000    0.0000 Cl  0  0  0  0  0  0  0  0  0  0  0  0
    0.6878    0.0000    0.0000 Cl  0  0  0  0  0  0  0  0  0  0  0  0
    0.3592    6.1859    0.4973 H   0  0  0  0  0  0  0  0  0  0  0  0
    1.9639    5.6496    1.1368 H   0  0  0  0  0  0  0  0  0  0  0  0
    1.7334    5.8610   -0.6329 H   0  0  0  0  0  0  0  0  0  0  0  0
    0.4306    4.1999   -1.9384 H   0  0  0  0  0  0  0  0  0  0  0  0
   -0.3566    1.8734   -2.1103 H   0  0  0  0  0  0  0  0  0  0  0  0
    1.8442    0.3610   -1.3110 H   0  0  0  0  0  0  0  0  0  0  0  0
    2.2009   -1.3422   -1.5534 H   0  0  0  0  0  0  0  0  0  0  0  0
    2.7287   -1.6834    0.8324 H   0  0  0  0  0  0  0  0  0  0  0  0
    2.1339   -0.0473    1.2567 H   0  0  0  0  0  0  0  0  0  0  0  0
    8.3333   -2.3938   -1.5064 H   0  0  0  0  0  0  0  0  0  0  0  0
    6.6770    2.1142   -0.3781 H   0  0  0  0  0  0  0  0  0  0  0  0
    1.0104   -3.3364   -2.0444 H   0  0  0  0  0  0  0  0  0  0  0  0
    0.2040   -4.4076   -0.8468 H   0  0  0  0  0  0  0  0  0  0  0  0
    1.6546   -3.4748   -0.3515 H   0  0  0  0  0  0  0  0  0  0  0  0
   -4.3011   -1.4144    1.0996 H   0  0  0  0  0  0  0  0  0  0  0  0
   -3.6012   -3.0306    1.1250 H   0  0  0  0  0  0  0  0  0  0  0  0
   -3.8956   -3.2350   -1.3811 H   0  0  0  0  0  0  0  0  0  0  0  0
   -3.9039   -0.7985   -1.9786 H   0  0  0  0  0  0  0  0  0  0  0  0
   -5.4809   -0.5923   -1.1138 H   0  0  0  0  0  0  0  0  0  0  0  0
   -5.3703   -1.6386   -2.5785 H   0  0  0  0  0  0  0  0  0  0  0  0
   -6.3589   -3.5648   -1.3041 H   0  0  0  0  0  0  0  0  0  0  0  0
   -6.4578   -2.5906    0.2154 H   0  0  0  0  0  0  0  0  0  0  0  0
   -5.5715   -4.1657    0.1954 H   0  0  0  0  0  0  0  0  0  0  0  0
   -2.6790    1.7683    0.0977 H   0  0  0  0  0  0  0  0  0  0  0  0
   -3.9516    0.5885    0.3269 H   0  0  0  0  0  0  0  0  0  0  0  0
   -3.4580    1.8271    2.3053 H   0  0  0  0  0  0  0  0  0  0  0  0
   -3.2080    0.1871    2.5470 H   0  0  0  0  0  0  0  0  0  0  0  0
    0.1737    1.3775    2.1366 H   0  0  0  0  0  0  0  0  0  0  0  0
    0.9628    3.7016    2.3120 H   0  0  0  0  0  0  0  0  0  0  0  0
   -0.6878    0.0000    0.0000 H   0  0  0  0  0  0  0  0  0  0  0  0
   -0.6878    0.0000    0.0000 H   0  0  0  0  0  0  0  0  0  0  0  0
  1  2  1  0
  2  3  2  0
  3  4  1  0
  4  5  2  0
  5  6  1  0
  6  7  1  0
  7  8  1  0
  8  9  1  0
  9 10  1  0
 10 11  2  0
 11 12  1  0
 12 13  1  0
 13 14  2  0
 13 15  1  0
 12 16  2  0
 16 17  1  0
  7 18  2  0
 18 19  1  0
 18 20  1  0
 20 21  2  0
 21 22  1  0
 22 23  1  0
 23 24  1  0
 23 25  1  0
 21 26  1  0
 26 27  1  0
 27 28  1  0
  5 29  1  0
 29 30  2  0
 30  2  1  0
 26  6  2  0
 17 10  1  0
  1 33  1  0
  1 34  1  0
  1 35  1  0
  3 36  1  0
  4 37  1  0
  8 38  1  0
  8 39  1  0
  9 40  1  0
  9 41  1  0
 15 42  1  0
 16 43  1  0
 19 44  1  0
 19 45  1  0
 19 46  1  0
 22 47  1  0
 22 48  1  0
 23 49  1  0
 24 50  1  0
 24 51  1  0
 24 52  1  0
 25 53  1  0
 25 54  1  0
 25 55  1  0
 27 56  1  0
 27 57  1  0
 28 58  1  0
 28 59  1  0
 29 60  1  0
 30 61  1  0
 31 62  1  0
 32 63  1  0
M  END
$$$$
