
     RDKit          3D

 37 38  0  0  0  0  0  0  0  0999 V2000
   -4.9552    1.7998    1.2212 C   0  0  0  0  0  0  0  0  0  0  0  0
   -4.3183    0.5374    0.6321 C   0  0  0  0  0  0  0  0  0  0  0  0
   -4.5010    0.4333   -0.8853 C   0  0  0  0  0  0  0  0  0  0  0  0
   -3.2477   -0.2853   -1.3926 C   0  0  1  0  0  0  0  0  0  0  0  0
   -2.7591    0.3182   -2.6444 C   0  0  0  0  0  0  0  0  0  0  0  0
   -2.3746    0.7921   -3.6276 N   0  0  0  0  0  0  0  0  0  0  0  0
   -2.2594   -0.1468   -0.3300 N   0  0  0  0  0  0  0  0  0  0  0  0
   -0.9339   -0.7083   -0.3964 C   0  0  0  0  0  0  0  0  0  0  0  0
   -0.6191   -1.4441   -1.3719 O   0  0  0  0  0  0  0  0  0  0  0  0
    0.0620   -0.4603    0.7073 C   0  0  0  0  0  0  0  0  0  0  0  0
    1.4239   -0.7952    0.2849 N   0  0  0  0  0  0  0  0  0  0  0  0
    2.5649   -0.0124    0.6739 C   0  0  0  0  0  0  0  0  0  0  0  0
    2.4264    0.9215    1.5110 O   0  0  0  0  0  0  0  0  0  0  0  0
    3.9106   -0.2973    0.1192 C   0  0  0  0  0  0  0  0  0  0  0  0
    4.0627   -0.9729   -1.1070 C   0  0  0  0  0  0  0  0  0  0  0  0
    5.3380   -1.2285   -1.6210 C   0  0  0  0  0  0  0  0  0  0  0  0
    6.4727   -0.8097   -0.9231 C   0  0  0  0  0  0  0  0  0  0  0  0
    6.3349   -0.1294    0.2885 C   0  0  0  0  0  0  0  0  0  0  0  0
    5.0624    0.1299    0.8069 C   0  0  0  0  0  0  0  0  0  0  0  0
   -2.8087    0.4765    0.8643 C   0  0  0  0  0  0  0  0  0  0  0  0
   -4.7973    1.8236    2.3204 H   0  0  0  0  0  0  0  0  0  0  0  0
   -4.5087    2.7142    0.7745 H   0  0  0  0  0  0  0  0  0  0  0  0
   -6.0478    1.7991    1.0217 H   0  0  0  0  0  0  0  0  0  0  0  0
   -4.7876   -0.3549    1.1053 H   0  0  0  0  0  0  0  0  0  0  0  0
   -5.4198   -0.1403   -1.1372 H   0  0  0  0  0  0  0  0  0  0  0  0
   -4.5859    1.4515   -1.3306 H   0  0  0  0  0  0  0  0  0  0  0  0
   -3.4645   -1.3630   -1.5590 H   0  0  0  0  0  0  0  0  0  0  0  0
   -0.2072   -1.0825    1.5865 H   0  0  0  0  0  0  0  0  0  0  0  0
    0.0027    0.6096    0.9996 H   0  0  0  0  0  0  0  0  0  0  0  0
    1.5873   -1.7406   -0.1287 H   0  0  0  0  0  0  0  0  0  0  0  0
    3.2018   -1.2853   -1.6830 H   0  0  0  0  0  0  0  0  0  0  0  0
    5.4461   -1.7467   -2.5651 H   0  0  0  0  0  0  0  0  0  0  0  0
    7.4585   -1.0082   -1.3234 H   0  0  0  0  0  0  0  0  0  0  0  0
    7.2149    0.1977    0.8272 H   0  0  0  0  0  0  0  0  0  0  0  0
    4.9797    0.6554    1.7502 H   0  0  0  0  0  0  0  0  0  0  0  0
   -2.5879   -0.1373    1.7646 H   0  0  0  0  0  0  0  0  0  0  0  0
   -2.3658    1.4896    0.9828 H   0  0  0  0  0  0  0  0  0  0  0  0
  1  2  1  0
  2  3  1  0
  3  4  1  0
  4  5  1  0
  5  6  3  0
  4  7  1  0
  7  8  1  0
  8  9  2  0
  8 10  1  0
 10 11  1  0
 11 12  1  0
 12 13  2  0
 12 14  1  0
 14 15  2  0
 15 16  1  0
 16 17  2  0
 17 18  1  0
 18 19  2  0
  7 20  1  0
 20  2  1  0
 19 14  1  0
  1 21  1  0
  1 22  1  0
  1 23  1  0
  2 24  1  0
  3 25  1  0
  3 26  1  0
  4 27  1  6
 10 28  1  0
 10 29  1  0
 11 30  1  0
 15 31  1  0
 16 32  1  0
 17 33  1  0
 18 34  1  0
 19 35  1  0
 20 36  1  0
 20 37  1  0
M  END
$$$$
