
     RDKit          3D

 54 58  0  0  0  0  0  0  0  0999 V2000
    6.0373   -3.1525    2.9667 C   0  0  0  0  0  0  0  0  0  0  0  0
    5.7704   -3.5263    1.5840 N   0  0  0  0  0  0  0  0  0  0  0  0
    6.6035   -4.1748    0.7462 C   0  0  0  0  0  0  0  0  0  0  0  0
    6.0982   -4.2872   -0.5011 N   0  0  0  0  0  0  0  0  0  0  0  0
    4.9040   -3.6660   -0.4207 C   0  0  0  0  0  0  0  0  0  0  0  0
    3.8017   -3.4867   -1.7705 S   0  0  0  0  0  0  0  0  0  0  0  0
    4.5764   -3.2252   -3.0313 O   0  0  0  0  0  0  0  0  0  0  0  0
    2.9972   -4.7451   -1.9349 O   0  0  0  0  0  0  0  0  0  0  0  0
    2.7392   -2.1557   -1.4728 N   0  0  0  0  0  0  0  0  0  0  0  0
    3.1023   -0.8556   -1.4825 C   0  0  0  0  0  0  0  0  0  0  0  0
    2.0158   -0.1371   -1.0400 C   0  0  0  0  0  0  0  0  0  0  0  0
    1.0717   -1.0406   -0.7454 C   0  0  0  0  0  0  0  0  0  0  0  0
    1.5240   -2.2899   -0.9574 N   0  0  0  0  0  0  0  0  0  0  0  0
    0.2069   -0.5643    0.3499 C   0  0  0  0  0  0  0  0  0  0  0  0
    0.6721    0.8236    0.6272 N   0  0  0  0  0  0  0  0  0  0  0  0
   -0.3514    1.8829    0.4235 C   0  0  1  0  0  0  0  0  0  0  0  0
   -0.9918    1.8955   -0.9984 C   0  0  0  0  0  0  0  0  0  0  0  0
   -2.1427    1.0753   -1.1308 O   0  0  0  0  0  0  0  0  0  0  0  0
   -3.1557    1.2919   -0.1488 C   0  0  2  0  0  0  0  0  0  0  0  0
   -4.4592    1.6933   -0.8157 C   0  0  0  0  0  0  0  0  0  0  0  0
   -5.6206    0.9301   -0.5839 C   0  0  0  0  0  0  0  0  0  0  0  0
   -6.8363    1.2853   -1.1754 C   0  0  0  0  0  0  0  0  0  0  0  0
   -7.9452    0.5399   -0.9451 F   0  0  0  0  0  0  0  0  0  0  0  0
   -6.9106    2.4081   -2.0010 C   0  0  0  0  0  0  0  0  0  0  0  0
   -5.7707    3.1793   -2.2338 C   0  0  0  0  0  0  0  0  0  0  0  0
   -4.5501    2.8310   -1.6456 C   0  0  0  0  0  0  0  0  0  0  0  0
   -3.4703    3.6123   -1.8851 F   0  0  0  0  0  0  0  0  0  0  0  0
   -2.7839    2.2539    1.0091 C   0  0  1  0  0  0  0  0  0  0  0  0
   -3.7988    2.2029    2.0660 N   0  0  0  0  0  0  0  0  0  0  0  0
   -1.4069    1.8482    1.5475 C   0  0  0  0  0  0  0  0  0  0  0  0
    1.9101    1.0484   -0.1693 C   0  0  0  0  0  0  0  0  0  0  0  0
    4.6981   -3.1865    0.8523 C   0  0  0  0  0  0  0  0  0  0  0  0
    6.5507   -2.1687    2.9928 H   0  0  0  0  0  0  0  0  0  0  0  0
    5.0849   -3.0831    3.5341 H   0  0  0  0  0  0  0  0  0  0  0  0
    6.6835   -3.9155    3.4504 H   0  0  0  0  0  0  0  0  0  0  0  0
    7.5754   -4.5550    1.0336 H   0  0  0  0  0  0  0  0  0  0  0  0
    4.1122   -0.4937   -1.6249 H   0  0  0  0  0  0  0  0  0  0  0  0
    0.3756   -1.1870    1.2539 H   0  0  0  0  0  0  0  0  0  0  0  0
   -0.8597   -0.6365    0.0629 H   0  0  0  0  0  0  0  0  0  0  0  0
    0.1615    2.8668    0.5317 H   0  0  0  0  0  0  0  0  0  0  0  0
   -1.2460    2.9400   -1.2725 H   0  0  0  0  0  0  0  0  0  0  0  0
   -0.2516    1.5700   -1.7563 H   0  0  0  0  0  0  0  0  0  0  0  0
   -3.3104    0.2958    0.3236 H   0  0  0  0  0  0  0  0  0  0  0  0
   -5.5877    0.0584    0.0579 H   0  0  0  0  0  0  0  0  0  0  0  0
   -7.8520    2.6838   -2.4585 H   0  0  0  0  0  0  0  0  0  0  0  0
   -5.8341    4.0524   -2.8705 H   0  0  0  0  0  0  0  0  0  0  0  0
   -2.7294    3.2988    0.6291 H   0  0  0  0  0  0  0  0  0  0  0  0
   -3.7938    1.2571    2.5135 H   0  0  0  0  0  0  0  0  0  0  0  0
   -3.5463    2.8987    2.8051 H   0  0  0  0  0  0  0  0  0  0  0  0
   -1.4738    0.8305    1.9906 H   0  0  0  0  0  0  0  0  0  0  0  0
   -1.1055    2.5389    2.3658 H   0  0  0  0  0  0  0  0  0  0  0  0
    1.8850    1.9748   -0.7838 H   0  0  0  0  0  0  0  0  0  0  0  0
    2.7814    1.0900    0.5185 H   0  0  0  0  0  0  0  0  0  0  0  0
    3.8454   -2.6249    1.2127 H   0  0  0  0  0  0  0  0  0  0  0  0
  1  2  1  0
  2  3  1  0
  3  4  2  0
  4  5  1  0
  5  6  1  0
  6  7  2  0
  6  8  2  0
  6  9  1  0
  9 10  1  0
 10 11  2  0
 11 12  1  0
 12 13  2  0
 12 14  1  0
 14 15  1  0
 15 16  1  0
 16 17  1  0
 17 18  1  0
 18 19  1  0
 19 20  1  0
 20 21  2  0
 21 22  1  0
 22 23  1  0
 22 24  2  0
 24 25  1  0
 25 26  2  0
 26 27  1  0
 19 28  1  0
 28 29  1  0
 28 30  1  0
 15 31  1  0
  5 32  2  0
 32  2  1  0
 13  9  1  0
 30 16  1  0
 31 11  1  0
 26 20  1  0
  1 33  1  0
  1 34  1  0
  1 35  1  0
  3 36  1  0
 10 37  1  0
 14 38  1  0
 14 39  1  0
 16 40  1  1
 17 41  1  0
 17 42  1  0
 19 43  1  1
 21 44  1  0
 24 45  1  0
 25 46  1  0
 28 47  1  6
 29 48  1  0
 29 49  1  0
 30 50  1  0
 30 51  1  0
 31 52  1  0
 31 53  1  0
 32 54  1  0
M  END
$$$$
