
     RDKit          3D

 43 45  0  0  0  0  0  0  0  0999 V2000
   -1.1393   -1.9822    0.7362 N   0  0  0  0  0  0  0  0  0  0  0  0
   -1.9998   -1.2273    0.5645 C   0  0  0  0  0  0  0  0  0  0  0  0
   -3.1002   -0.2713    0.3605 C   0  0  2  0  0  0  0  0  0  0  0  0
   -4.3781   -0.7836    1.0315 C   0  0  0  0  0  0  0  0  0  0  0  0
   -5.5028   -0.4932    0.0477 C   0  0  0  0  0  0  0  0  0  0  0  0
   -4.8365   -0.3949   -1.3151 C   0  0  0  0  0  0  0  0  0  0  0  0
   -3.4296   -0.1245   -1.0572 N   0  0  0  0  0  0  0  0  0  0  0  0
   -2.5501    0.2838   -2.1338 C   0  0  0  0  0  0  0  0  0  0  0  0
   -2.9094    0.0606   -3.3222 O   0  0  0  0  0  0  0  0  0  0  0  0
   -1.2117    0.9657   -1.9371 C   0  0  2  0  0  0  0  0  0  0  0  0
   -0.0508   -0.0140   -2.0139 C   0  0  0  0  0  0  0  0  0  0  0  0
    1.0115    0.6230   -1.1379 C   0  0  2  0  0  0  0  0  0  0  0  0
    1.8735   -0.3786   -0.4938 N   0  0  0  0  0  0  0  0  0  0  0  0
    3.0121   -0.0541    0.3284 C   0  0  0  0  0  0  0  0  0  0  0  0
    3.5370    1.2500    0.3953 C   0  0  0  0  0  0  0  0  0  0  0  0
    4.6435    1.5283    1.2031 C   0  0  0  0  0  0  0  0  0  0  0  0
    5.2527    0.5107    1.9580 C   0  0  0  0  0  0  0  0  0  0  0  0
    6.3918    0.7944    2.7910 N   0  0  0  0  0  0  0  0  0  0  0  0
    6.8583    1.9506    2.8601 O   0  0  0  0  0  0  0  0  0  0  0  0
    6.9862   -0.2050    3.5270 O   0  0  0  0  0  0  0  0  0  0  0  0
    4.7326   -0.7918    1.8843 C   0  0  0  0  0  0  0  0  0  0  0  0
    3.6266   -1.0698    1.0765 C   0  0  0  0  0  0  0  0  0  0  0  0
    0.2142    1.4281   -0.1137 C   0  0  0  0  0  0  0  0  0  0  0  0
   -1.1217    1.6789   -0.6619 N   0  0  0  0  0  0  0  0  0  0  0  0
   -2.8400    0.7128    0.8004 H   0  0  0  0  0  0  0  0  0  0  0  0
   -4.5565   -0.2732    2.0033 H   0  0  0  0  0  0  0  0  0  0  0  0
   -4.3391   -1.8829    1.2091 H   0  0  0  0  0  0  0  0  0  0  0  0
   -6.2770   -1.2908    0.0649 H   0  0  0  0  0  0  0  0  0  0  0  0
   -5.9749    0.4813    0.3029 H   0  0  0  0  0  0  0  0  0  0  0  0
   -4.9353   -1.3543   -1.8679 H   0  0  0  0  0  0  0  0  0  0  0  0
   -5.2914    0.4298   -1.9065 H   0  0  0  0  0  0  0  0  0  0  0  0
   -1.0810    1.7015   -2.7666 H   0  0  0  0  0  0  0  0  0  0  0  0
   -0.3527   -1.0093   -1.6264 H   0  0  0  0  0  0  0  0  0  0  0  0
    0.3096   -0.1348   -3.0591 H   0  0  0  0  0  0  0  0  0  0  0  0
    1.6223    1.3050   -1.7704 H   0  0  0  0  0  0  0  0  0  0  0  0
    1.6498   -1.3918   -0.6247 H   0  0  0  0  0  0  0  0  0  0  0  0
    3.1079    2.0581   -0.1785 H   0  0  0  0  0  0  0  0  0  0  0  0
    5.0246    2.5410    1.2345 H   0  0  0  0  0  0  0  0  0  0  0  0
    5.1801   -1.5978    2.4513 H   0  0  0  0  0  0  0  0  0  0  0  0
    3.2433   -2.0818    1.0384 H   0  0  0  0  0  0  0  0  0  0  0  0
    0.1033    0.8545    0.8317 H   0  0  0  0  0  0  0  0  0  0  0  0
    0.7315    2.3846    0.1218 H   0  0  0  0  0  0  0  0  0  0  0  0
   -1.2344    2.7059   -0.8354 H   0  0  0  0  0  0  0  0  0  0  0  0
  1  2  3  0
  2  3  1  0
  3  4  1  0
  4  5  1  0
  5  6  1  0
  6  7  1  0
  7  8  1  0
  8  9  2  0
  8 10  1  0
 10 11  1  0
 11 12  1  0
 12 13  1  0
 13 14  1  0
 14 15  2  0
 15 16  1  0
 16 17  2  0
 17 18  1  0
 18 19  2  0
 18 20  1  0
 17 21  1  0
 21 22  2  0
 12 23  1  0
 23 24  1  0
  7  3  1  0
 24 10  1  0
 22 14  1  0
  3 25  1  1
  4 26  1  0
  4 27  1  0
  5 28  1  0
  5 29  1  0
  6 30  1  0
  6 31  1  0
 10 32  1  6
 11 33  1  0
 11 34  1  0
 12 35  1  6
 13 36  1  0
 15 37  1  0
 16 38  1  0
 21 39  1  0
 22 40  1  0
 23 41  1  0
 23 42  1  0
 24 43  1  0
M  CHG  2  18   1  20  -1
M  END
$$$$
