
     RDKit          3D

 54 57  0  0  0  0  0  0  0  0999 V2000
   -6.0906    2.3010   -1.4041 C   0  0  0  0  0  0  0  0  0  0  0  0
   -5.7259    1.0719   -0.7843 O   0  0  0  0  0  0  0  0  0  0  0  0
   -4.4336    0.5231   -0.8035 C   0  0  0  0  0  0  0  0  0  0  0  0
   -3.3616    1.1587   -1.4563 C   0  0  0  0  0  0  0  0  0  0  0  0
   -2.0857    0.5783   -1.4622 C   0  0  0  0  0  0  0  0  0  0  0  0
   -1.8594   -0.6308   -0.7866 C   0  0  0  0  0  0  0  0  0  0  0  0
   -2.9328   -1.2680   -0.1427 C   0  0  0  0  0  0  0  0  0  0  0  0
   -4.2195   -0.6978   -0.1485 C   0  0  0  0  0  0  0  0  0  0  0  0
   -5.3093   -1.3111    0.4901 O   0  0  0  0  0  0  0  0  0  0  0  0
   -5.2410   -2.5454    1.1968 C   0  0  0  0  0  0  0  0  0  0  0  0
   -0.4618   -1.2314   -0.6920 C   0  0  2  0  0  0  0  0  0  0  0  0
    0.1033   -1.0317    0.7391 C   0  0  0  0  0  0  0  0  0  0  0  0
    0.7540    0.3529    0.8873 C   0  0  0  0  0  0  0  0  0  0  0  0
    1.2032    0.5568    2.2685 N   0  0  0  0  0  0  0  0  0  0  0  0
    1.9082    0.5532   -0.1526 C   0  0  1  0  0  0  0  0  0  0  0  0
    3.3038    0.5726    0.4597 C   0  0  0  0  0  0  0  0  0  0  0  0
    4.1168    1.7119    0.3229 C   0  0  0  0  0  0  0  0  0  0  0  0
    5.4024    1.7346    0.8684 C   0  0  0  0  0  0  0  0  0  0  0  0
    5.8924    0.6250    1.5594 C   0  0  0  0  0  0  0  0  0  0  0  0
    5.0926   -0.5152    1.7206 C   0  0  0  0  0  0  0  0  0  0  0  0
    5.6311   -1.7219    2.4315 C   0  0  0  0  0  0  0  0  0  0  0  0
    6.2402   -2.5618    1.5181 F   0  0  0  0  0  0  0  0  0  0  0  0
    3.8080   -0.5435    1.1561 C   0  0  0  0  0  0  0  0  0  0  0  0
    1.8594   -0.4816   -1.3023 C   0  0  0  0  0  0  0  0  0  0  0  0
    0.4798   -0.7567   -1.7533 N   0  0  0  0  0  0  0  0  0  0  0  0
   -0.0363    0.1806   -2.7761 C   0  0  0  0  0  0  0  0  0  0  0  0
   -0.9580    1.2434   -2.1852 C   0  0  0  0  0  0  0  0  0  0  0  0
   -5.9126    2.2443   -2.4988 H   0  0  0  0  0  0  0  0  0  0  0  0
   -7.1697    2.4886   -1.2293 H   0  0  0  0  0  0  0  0  0  0  0  0
   -5.5086    3.1381   -0.9640 H   0  0  0  0  0  0  0  0  0  0  0  0
   -3.5130    2.0991   -1.9690 H   0  0  0  0  0  0  0  0  0  0  0  0
   -2.7524   -2.2020    0.3724 H   0  0  0  0  0  0  0  0  0  0  0  0
   -4.5323   -2.4597    2.0475 H   0  0  0  0  0  0  0  0  0  0  0  0
   -4.9221   -3.3600    0.5128 H   0  0  0  0  0  0  0  0  0  0  0  0
   -6.2465   -2.7904    1.5960 H   0  0  0  0  0  0  0  0  0  0  0  0
   -0.5758   -2.3278   -0.8395 H   0  0  0  0  0  0  0  0  0  0  0  0
    0.8567   -1.8205    0.9515 H   0  0  0  0  0  0  0  0  0  0  0  0
   -0.7001   -1.1569    1.4978 H   0  0  0  0  0  0  0  0  0  0  0  0
   -0.0382    1.1076    0.6800 H   0  0  0  0  0  0  0  0  0  0  0  0
    0.3773    0.4701    2.9048 H   0  0  0  0  0  0  0  0  0  0  0  0
    1.5288    1.5468    2.3616 H   0  0  0  0  0  0  0  0  0  0  0  0
    1.7323    1.5452   -0.6237 H   0  0  0  0  0  0  0  0  0  0  0  0
    3.7594    2.5840   -0.2103 H   0  0  0  0  0  0  0  0  0  0  0  0
    6.0224    2.6142    0.7517 H   0  0  0  0  0  0  0  0  0  0  0  0
    6.8945    0.6552    1.9691 H   0  0  0  0  0  0  0  0  0  0  0  0
    6.3726   -1.4236    3.2030 H   0  0  0  0  0  0  0  0  0  0  0  0
    4.8114   -2.2714    2.9417 H   0  0  0  0  0  0  0  0  0  0  0  0
    3.2000   -1.4319    1.2663 H   0  0  0  0  0  0  0  0  0  0  0  0
    2.4960   -0.1363   -2.1466 H   0  0  0  0  0  0  0  0  0  0  0  0
    2.3066   -1.4447   -0.9747 H   0  0  0  0  0  0  0  0  0  0  0  0
    0.7879    0.6842   -3.3266 H   0  0  0  0  0  0  0  0  0  0  0  0
   -0.6027   -0.4051   -3.5328 H   0  0  0  0  0  0  0  0  0  0  0  0
   -0.4042    1.9075   -1.4933 H   0  0  0  0  0  0  0  0  0  0  0  0
   -1.3475    1.8711   -3.0165 H   0  0  0  0  0  0  0  0  0  0  0  0
  1  2  1  0
  2  3  1  0
  3  4  2  0
  4  5  1  0
  5  6  2  0
  6  7  1  0
  7  8  2  0
  8  9  1  0
  9 10  1  0
  6 11  1  0
 11 12  1  0
 12 13  1  0
 13 14  1  0
 13 15  1  0
 15 16  1  0
 16 17  2  0
 17 18  1  0
 18 19  2  0
 19 20  1  0
 20 21  1  0
 21 22  1  0
 20 23  2  0
 15 24  1  0
 24 25  1  0
 25 26  1  0
 26 27  1  0
  8  3  1  0
 25 11  1  0
 27  5  1  0
 23 16  1  0
  1 28  1  0
  1 29  1  0
  1 30  1  0
  4 31  1  0
  7 32  1  0
 10 33  1  0
 10 34  1  0
 10 35  1  0
 11 36  1  6
 12 37  1  0
 12 38  1  0
 13 39  1  0
 14 40  1  0
 14 41  1  0
 15 42  1  6
 17 43  1  0
 18 44  1  0
 19 45  1  0
 21 46  1  0
 21 47  1  0
 23 48  1  0
 24 49  1  0
 24 50  1  0
 26 51  1  0
 26 52  1  0
 27 53  1  0
 27 54  1  0
M  END
$$$$
