
     RDKit          3D

 56 59  0  0  0  0  0  0  0  0999 V2000
    5.6405   -2.3337   -1.1864 C   0  0  0  0  0  0  0  0  0  0  0  0
    4.6536   -1.4162   -0.7269 O   0  0  0  0  0  0  0  0  0  0  0  0
    4.9339   -0.1875   -0.1055 C   0  0  0  0  0  0  0  0  0  0  0  0
    6.2566    0.2533    0.1028 C   0  0  0  0  0  0  0  0  0  0  0  0
    6.5041    1.4887    0.7053 C   0  0  0  0  0  0  0  0  0  0  0  0
    5.4414    2.2972    1.1078 C   0  0  0  0  0  0  0  0  0  0  0  0
    4.1264    1.8727    0.9118 C   0  0  0  0  0  0  0  0  0  0  0  0
    3.8606    0.6318    0.3073 C   0  0  0  0  0  0  0  0  0  0  0  0
    2.4550    0.1933    0.1253 C   0  0  0  0  0  0  0  0  0  0  0  0
    2.0255   -1.0159    0.6708 C   0  0  0  0  0  0  0  0  0  0  0  0
    0.7391   -1.4057    0.5248 N   0  0  0  0  0  0  0  0  0  0  0  0
   -0.1632   -0.6493   -0.1507 C   0  0  0  0  0  0  0  0  0  0  0  0
   -1.5118   -1.1273   -0.2551 N   0  0  0  0  0  0  0  0  0  0  0  0
   -1.9476   -1.8172   -1.4753 C   0  0  0  0  0  0  0  0  0  0  0  0
   -2.6400   -3.1317   -1.1079 C   0  0  0  0  0  0  0  0  0  0  0  0
   -3.8106   -2.9308   -0.1192 C   0  0  0  0  0  0  0  0  0  0  0  0
   -3.7875   -1.5701    0.6150 C   0  0  1  0  0  0  0  0  0  0  0  0
   -4.5902   -1.6407    1.8363 N   0  0  0  0  0  0  0  0  0  0  0  0
   -2.3469   -1.1520    0.9524 C   0  0  0  0  0  0  0  0  0  0  0  0
    0.2147    0.5541   -0.7009 N   0  0  0  0  0  0  0  0  0  0  0  0
   -0.7841    1.4021   -1.3895 C   0  0  0  0  0  0  0  0  0  0  0  0
   -1.7684    2.0063   -0.4051 C   0  0  0  0  0  0  0  0  0  0  0  0
   -1.2818    2.5878    0.7816 C   0  0  0  0  0  0  0  0  0  0  0  0
   -2.1595    3.1391    1.7171 C   0  0  0  0  0  0  0  0  0  0  0  0
   -3.5325    3.1370    1.4748 C   0  0  0  0  0  0  0  0  0  0  0  0
   -4.0319    2.5985    0.2882 C   0  0  0  0  0  0  0  0  0  0  0  0
   -3.1620    2.0446   -0.6617 C   0  0  0  0  0  0  0  0  0  0  0  0
   -3.7272    1.5361   -1.8883 C   0  0  0  0  0  0  0  0  0  0  0  0
   -4.1825    1.1295   -2.8715 N   0  0  0  0  0  0  0  0  0  0  0  0
    1.5171    0.9780   -0.5692 C   0  0  0  0  0  0  0  0  0  0  0  0
    1.8865    2.0745   -1.0754 O   0  0  0  0  0  0  0  0  0  0  0  0
    6.2714   -1.8572   -1.9661 H   0  0  0  0  0  0  0  0  0  0  0  0
    6.2707   -2.6732   -0.3375 H   0  0  0  0  0  0  0  0  0  0  0  0
    5.1356   -3.2166   -1.6290 H   0  0  0  0  0  0  0  0  0  0  0  0
    7.1011   -0.3496   -0.2014 H   0  0  0  0  0  0  0  0  0  0  0  0
    7.5228    1.8201    0.8600 H   0  0  0  0  0  0  0  0  0  0  0  0
    5.6369    3.2530    1.5767 H   0  0  0  0  0  0  0  0  0  0  0  0
    3.3130    2.5065    1.2439 H   0  0  0  0  0  0  0  0  0  0  0  0
    2.7093   -1.6450    1.2266 H   0  0  0  0  0  0  0  0  0  0  0  0
   -2.6560   -1.1732   -2.0361 H   0  0  0  0  0  0  0  0  0  0  0  0
   -1.0792   -2.0331   -2.1363 H   0  0  0  0  0  0  0  0  0  0  0  0
   -3.0086   -3.6273   -2.0320 H   0  0  0  0  0  0  0  0  0  0  0  0
   -1.8850   -3.8055   -0.6460 H   0  0  0  0  0  0  0  0  0  0  0  0
   -3.7871   -3.7574    0.6253 H   0  0  0  0  0  0  0  0  0  0  0  0
   -4.7726   -3.0162   -0.6705 H   0  0  0  0  0  0  0  0  0  0  0  0
   -4.2243   -0.7976   -0.0588 H   0  0  0  0  0  0  0  0  0  0  0  0
   -5.5742   -1.8736    1.5679 H   0  0  0  0  0  0  0  0  0  0  0  0
   -4.6269   -0.6851    2.2609 H   0  0  0  0  0  0  0  0  0  0  0  0
   -2.3595   -0.1417    1.4142 H   0  0  0  0  0  0  0  0  0  0  0  0
   -1.9108   -1.8640    1.6869 H   0  0  0  0  0  0  0  0  0  0  0  0
   -0.3087    2.2346   -1.9493 H   0  0  0  0  0  0  0  0  0  0  0  0
   -1.2905    0.7962   -2.1662 H   0  0  0  0  0  0  0  0  0  0  0  0
   -0.2203    2.6065    0.9918 H   0  0  0  0  0  0  0  0  0  0  0  0
   -1.7734    3.5697    2.6320 H   0  0  0  0  0  0  0  0  0  0  0  0
   -4.2105    3.5638    2.2025 H   0  0  0  0  0  0  0  0  0  0  0  0
   -5.1002    2.6199    0.1075 H   0  0  0  0  0  0  0  0  0  0  0  0
  1  2  1  0
  2  3  1  0
  3  4  2  0
  4  5  1  0
  5  6  2  0
  6  7  1  0
  7  8  2  0
  8  9  1  0
  9 10  2  0
 10 11  1  0
 11 12  2  0
 12 13  1  0
 13 14  1  0
 14 15  1  0
 15 16  1  0
 16 17  1  0
 17 18  1  0
 17 19  1  0
 12 20  1  0
 20 21  1  0
 21 22  1  0
 22 23  2  0
 23 24  1  0
 24 25  2  0
 25 26  1  0
 26 27  2  0
 27 28  1  0
 28 29  3  0
 20 30  1  0
 30 31  2  0
  8  3  1  0
 30  9  1  0
 19 13  1  0
 27 22  1  0
  1 32  1  0
  1 33  1  0
  1 34  1  0
  4 35  1  0
  5 36  1  0
  6 37  1  0
  7 38  1  0
 10 39  1  0
 14 40  1  0
 14 41  1  0
 15 42  1  0
 15 43  1  0
 16 44  1  0
 16 45  1  0
 17 46  1  6
 18 47  1  0
 18 48  1  0
 19 49  1  0
 19 50  1  0
 21 51  1  0
 21 52  1  0
 23 53  1  0
 24 54  1  0
 25 55  1  0
 26 56  1  0
M  END
$$$$
