
     RDKit          3D

 49 52  0  0  0  0  0  0  0  0999 V2000
    5.0342   -2.2142    0.4822 O   0  0  0  0  0  0  0  0  0  0  0  0
    4.1572   -1.3105    0.4096 C   0  0  0  0  0  0  0  0  0  0  0  0
    2.9684   -1.4005    1.3400 C   0  0  2  0  0  0  0  0  0  0  0  0
    1.6922   -1.7972    0.6138 C   0  0  0  0  0  0  0  0  0  0  0  0
    0.6108   -1.2626    1.5389 C   0  0  2  0  0  0  0  0  0  0  0  0
   -0.6777   -0.9750    0.8553 N   0  0  0  0  0  0  0  0  0  0  0  0
   -1.7542   -0.7077    1.8285 C   0  0  0  0  0  0  0  0  0  0  0  0
   -3.0993   -0.6204    1.1070 C   0  0  0  0  0  0  0  0  0  0  0  0
   -3.0451    0.3544    0.0097 N   0  0  0  0  0  0  0  0  0  0  0  0
   -4.2715    0.7988   -0.6109 C   0  0  0  0  0  0  0  0  0  0  0  0
   -5.2998   -0.1153   -0.8985 C   0  0  0  0  0  0  0  0  0  0  0  0
   -6.4806    0.3346   -1.4940 C   0  0  0  0  0  0  0  0  0  0  0  0
   -6.6371    1.6513   -1.7908 N   0  0  0  0  0  0  0  0  0  0  0  0
   -5.6647    2.5613   -1.5222 C   0  0  0  0  0  0  0  0  0  0  0  0
   -4.4676    2.1547   -0.9283 C   0  0  0  0  0  0  0  0  0  0  0  0
   -1.7693    1.0110   -0.3027 C   0  0  0  0  0  0  0  0  0  0  0  0
   -0.6094    0.0002   -0.2691 C   0  0  0  0  0  0  0  0  0  0  0  0
    1.2558   -0.0619    2.2477 C   0  0  0  0  0  0  0  0  0  0  0  0
    2.7047   -0.1334    2.0252 N   0  0  0  0  0  0  0  0  0  0  0  0
    4.2849   -0.2906   -0.6032 N   0  0  0  0  0  0  0  0  0  0  0  0
    5.1330   -0.5036   -1.7669 C   0  0  0  0  0  0  0  0  0  0  0  0
    4.8303    0.5928   -2.7718 C   0  0  0  0  0  0  0  0  0  0  0  0
    4.3140    2.0655   -1.8499 S   0  0  0  0  0  0  0  0  0  0  0  0
    3.6846    1.0327   -0.4951 C   0  0  0  0  0  0  0  0  0  0  0  0
    3.1775   -2.1855    2.1065 H   0  0  0  0  0  0  0  0  0  0  0  0
    1.6543   -1.3292   -0.3916 H   0  0  0  0  0  0  0  0  0  0  0  0
    1.6181   -2.9008    0.4981 H   0  0  0  0  0  0  0  0  0  0  0  0
    0.4412   -2.0555    2.3050 H   0  0  0  0  0  0  0  0  0  0  0  0
   -1.5600    0.2404    2.3781 H   0  0  0  0  0  0  0  0  0  0  0  0
   -1.8154   -1.5323    2.5724 H   0  0  0  0  0  0  0  0  0  0  0  0
   -3.3526   -1.6229    0.7008 H   0  0  0  0  0  0  0  0  0  0  0  0
   -3.8817   -0.3211    1.8380 H   0  0  0  0  0  0  0  0  0  0  0  0
   -5.1878   -1.1685   -0.6802 H   0  0  0  0  0  0  0  0  0  0  0  0
   -7.2733   -0.3653   -1.7222 H   0  0  0  0  0  0  0  0  0  0  0  0
   -5.8221    3.6035   -1.7662 H   0  0  0  0  0  0  0  0  0  0  0  0
   -3.7112    2.8953   -0.7040 H   0  0  0  0  0  0  0  0  0  0  0  0
   -1.8029    1.4708   -1.3148 H   0  0  0  0  0  0  0  0  0  0  0  0
   -1.5829    1.8185    0.4383 H   0  0  0  0  0  0  0  0  0  0  0  0
   -0.6317   -0.5779   -1.2176 H   0  0  0  0  0  0  0  0  0  0  0  0
    0.3356    0.5765   -0.2727 H   0  0  0  0  0  0  0  0  0  0  0  0
    1.0223   -0.0977    3.3360 H   0  0  0  0  0  0  0  0  0  0  0  0
    0.8833    0.9088    1.8629 H   0  0  0  0  0  0  0  0  0  0  0  0
    3.1990   -0.1345    2.9488 H   0  0  0  0  0  0  0  0  0  0  0  0
    6.1998   -0.4560   -1.4582 H   0  0  0  0  0  0  0  0  0  0  0  0
    4.9247   -1.4965   -2.2220 H   0  0  0  0  0  0  0  0  0  0  0  0
    5.7225    0.8186   -3.3930 H   0  0  0  0  0  0  0  0  0  0  0  0
    3.9935    0.2787   -3.4319 H   0  0  0  0  0  0  0  0  0  0  0  0
    3.9723    1.5078    0.4655 H   0  0  0  0  0  0  0  0  0  0  0  0
    2.5838    0.9604   -0.5757 H   0  0  0  0  0  0  0  0  0  0  0  0
  1  2  2  0
  2  3  1  0
  3  4  1  0
  4  5  1  0
  5  6  1  0
  6  7  1  0
  7  8  1  0
  8  9  1  0
  9 10  1  0
 10 11  2  0
 11 12  1  0
 12 13  2  0
 13 14  1  0
 14 15  2  0
  9 16  1  0
 16 17  1  0
  5 18  1  0
 18 19  1  0
  2 20  1  0
 20 21  1  0
 21 22  1  0
 22 23  1  0
 23 24  1  0
 19  3  1  0
 24 20  1  0
 17  6  1  0
 15 10  1  0
  3 25  1  1
  4 26  1  0
  4 27  1  0
  5 28  1  1
  7 29  1  0
  7 30  1  0
  8 31  1  0
  8 32  1  0
 11 33  1  0
 12 34  1  0
 14 35  1  0
 15 36  1  0
 16 37  1  0
 16 38  1  0
 17 39  1  0
 17 40  1  0
 18 41  1  0
 18 42  1  0
 19 43  1  0
 21 44  1  0
 21 45  1  0
 22 46  1  0
 22 47  1  0
 24 48  1  0
 24 49  1  0
M  END
$$$$
