
     RDKit          3D

 58 59  0  0  0  0  0  0  0  0999 V2000
    8.6853    2.7228   -0.7018 C   0  0  0  0  0  0  0  0  0  0  0  0
    7.4991    3.5314   -0.1896 C   0  0  0  0  0  0  0  0  0  0  0  0
    6.3054    2.7518   -0.2258 O   0  0  0  0  0  0  0  0  0  0  0  0
    6.0114    1.7441    0.7021 C   0  0  0  0  0  0  0  0  0  0  0  0
    6.7961    1.5220    1.6654 O   0  0  0  0  0  0  0  0  0  0  0  0
    4.7742    0.9462    0.5540 C   0  0  0  0  0  0  0  0  0  0  0  0
    3.8989    1.1868   -0.5186 C   0  0  0  0  0  0  0  0  0  0  0  0
    2.7300    0.4337   -0.6616 C   0  0  0  0  0  0  0  0  0  0  0  0
    2.4067   -0.5613    0.2665 C   0  0  0  0  0  0  0  0  0  0  0  0
    1.2277   -1.2956    0.0747 O   0  0  0  0  0  0  0  0  0  0  0  0
    0.4604   -1.8786    1.0926 C   0  0  0  0  0  0  0  0  0  0  0  0
    0.6214   -1.5487    2.2988 O   0  0  0  0  0  0  0  0  0  0  0  0
   -0.5863   -2.8964    0.7390 C   0  0  0  0  0  0  0  0  0  0  0  0
    0.0545   -4.2620    0.4244 C   0  0  0  0  0  0  0  0  0  0  0  0
   -0.2877   -4.4554   -1.0161 C   0  0  0  0  0  0  0  0  0  0  0  0
   -1.0055   -3.5007   -1.4935 N   0  0  0  0  0  0  0  0  0  0  0  0
   -1.2504   -2.5422   -0.5116 N   0  0  0  0  0  0  0  0  0  0  0  0
   -2.0945   -1.4038   -0.7509 C   0  0  0  0  0  0  0  0  0  0  0  0
   -2.4271   -1.1255   -1.9336 O   0  0  0  0  0  0  0  0  0  0  0  0
   -2.6285   -0.5570    0.3776 C   0  0  0  0  0  0  0  0  0  0  0  0
   -4.0137   -1.0173    0.8862 C   0  0  2  0  0  0  0  0  0  0  0  0
   -3.9769   -2.4332    1.2647 N   0  0  0  0  0  0  0  0  0  0  0  0
   -5.1587   -0.7454   -0.1209 C   0  0  0  0  0  0  0  0  0  0  0  0
   -5.4275    0.7318   -0.2946 C   0  0  0  0  0  0  0  0  0  0  0  0
   -6.0507    1.4510    0.7406 C   0  0  0  0  0  0  0  0  0  0  0  0
   -6.2931    2.8212    0.6057 C   0  0  0  0  0  0  0  0  0  0  0  0
   -6.8927    3.5037    1.6126 F   0  0  0  0  0  0  0  0  0  0  0  0
   -5.9179    3.4861   -0.5648 C   0  0  0  0  0  0  0  0  0  0  0  0
   -6.1522    4.8152   -0.6973 F   0  0  0  0  0  0  0  0  0  0  0  0
   -5.3028    2.7803   -1.6019 C   0  0  0  0  0  0  0  0  0  0  0  0
   -5.0575    1.4092   -1.4732 C   0  0  0  0  0  0  0  0  0  0  0  0
   -4.4687    0.7482   -2.5007 F   0  0  0  0  0  0  0  0  0  0  0  0
    3.2888   -0.8198    1.3303 C   0  0  0  0  0  0  0  0  0  0  0  0
    4.4593   -0.0689    1.4748 C   0  0  0  0  0  0  0  0  0  0  0  0
    0.6878    0.0000    0.0000 Cl  0  0  0  0  0  0  0  0  0  0  0  0
    9.5930    3.3621   -0.7197 H   0  0  0  0  0  0  0  0  0  0  0  0
    8.8758    1.8523   -0.0400 H   0  0  0  0  0  0  0  0  0  0  0  0
    8.4801    2.3599   -1.7311 H   0  0  0  0  0  0  0  0  0  0  0  0
    7.6949    3.8937    0.8430 H   0  0  0  0  0  0  0  0  0  0  0  0
    7.3623    4.4172   -0.8450 H   0  0  0  0  0  0  0  0  0  0  0  0
    4.1161    1.9555   -1.2495 H   0  0  0  0  0  0  0  0  0  0  0  0
    2.0663    0.6304   -1.4942 H   0  0  0  0  0  0  0  0  0  0  0  0
   -1.3326   -2.9991    1.5565 H   0  0  0  0  0  0  0  0  0  0  0  0
    1.1585   -4.2718    0.5589 H   0  0  0  0  0  0  0  0  0  0  0  0
   -0.4105   -5.0675    1.0319 H   0  0  0  0  0  0  0  0  0  0  0  0
    0.0121   -5.3094   -1.6082 H   0  0  0  0  0  0  0  0  0  0  0  0
   -1.9185   -0.5667    1.2287 H   0  0  0  0  0  0  0  0  0  0  0  0
   -2.6822    0.5012    0.0436 H   0  0  0  0  0  0  0  0  0  0  0  0
   -4.2240   -0.4324    1.8100 H   0  0  0  0  0  0  0  0  0  0  0  0
   -3.9978   -3.0275    0.4038 H   0  0  0  0  0  0  0  0  0  0  0  0
   -4.8411   -2.6557    1.8105 H   0  0  0  0  0  0  0  0  0  0  0  0
   -4.9392   -1.2317   -1.0946 H   0  0  0  0  0  0  0  0  0  0  0  0
   -6.0912   -1.2203    0.2555 H   0  0  0  0  0  0  0  0  0  0  0  0
   -6.3474    0.9481    1.6529 H   0  0  0  0  0  0  0  0  0  0  0  0
   -5.0164    3.2966   -2.5093 H   0  0  0  0  0  0  0  0  0  0  0  0
    3.0936   -1.6189    2.0322 H   0  0  0  0  0  0  0  0  0  0  0  0
    5.1213   -0.2897    2.3028 H   0  0  0  0  0  0  0  0  0  0  0  0
   -0.6878    0.0000    0.0000 H   0  0  0  0  0  0  0  0  0  0  0  0
  1  2  1  0
  2  3  1  0
  3  4  1  0
  4  5  2  0
  4  6  1  0
  6  7  2  0
  7  8  1  0
  8  9  2  0
  9 10  1  0
 10 11  1  0
 11 12  2  0
 11 13  1  0
 13 14  1  0
 14 15  1  0
 15 16  2  0
 16 17  1  0
 17 18  1  0
 18 19  2  0
 18 20  1  0
 20 21  1  0
 21 22  1  0
 21 23  1  0
 23 24  1  0
 24 25  2  0
 25 26  1  0
 26 27  1  0
 26 28  2  0
 28 29  1  0
 28 30  1  0
 30 31  2  0
 31 32  1  0
  9 33  1  0
 33 34  2  0
 34  6  1  0
 17 13  1  0
 31 24  1  0
  1 36  1  0
  1 37  1  0
  1 38  1  0
  2 39  1  0
  2 40  1  0
  7 41  1  0
  8 42  1  0
 13 43  1  0
 14 44  1  0
 14 45  1  0
 15 46  1  0
 20 47  1  0
 20 48  1  0
 21 49  1  1
 22 50  1  0
 22 51  1  0
 23 52  1  0
 23 53  1  0
 25 54  1  0
 30 55  1  0
 33 56  1  0
 34 57  1  0
 35 58  1  0
M  END
$$$$
