
     RDKit          3D

 57 61  0  0  0  0  0  0  0  0999 V2000
    5.8309   -1.1360    4.1704 C   0  0  0  0  0  0  0  0  0  0  0  0
    4.6569   -0.9831    3.2478 C   0  0  0  0  0  0  0  0  0  0  0  0
    3.3768   -1.3544    3.6754 C   0  0  0  0  0  0  0  0  0  0  0  0
    2.2769   -1.1824    2.8377 C   0  0  0  0  0  0  0  0  0  0  0  0
    2.4434   -0.6223    1.5631 C   0  0  0  0  0  0  0  0  0  0  0  0
    1.3655   -0.4356    0.7064 C   0  0  0  0  0  0  0  0  0  0  0  0
    0.0800   -0.7595    0.9344 N   0  0  0  0  0  0  0  0  0  0  0  0
   -0.5343   -0.3799   -0.2102 C   0  0  0  0  0  0  0  0  0  0  0  0
   -1.9378   -0.5727   -0.4165 N   0  0  0  0  0  0  0  0  0  0  0  0
   -2.3871   -1.6835   -1.2639 C   0  0  0  0  0  0  0  0  0  0  0  0
   -3.9162   -1.7208   -1.3584 C   0  0  0  0  0  0  0  0  0  0  0  0
   -4.5762   -1.7317    0.0338 C   0  0  0  0  0  0  0  0  0  0  0  0
   -3.8690   -0.8277    1.0840 C   0  0  1  0  0  0  0  0  0  0  0  0
   -3.1444   -1.6528    2.0552 N   0  0  0  0  0  0  0  0  0  0  0  0
   -2.8977    0.1603    0.4163 C   0  0  0  0  0  0  0  0  0  0  0  0
    0.2998    0.1859   -1.1257 N   0  0  0  0  0  0  0  0  0  0  0  0
   -0.0647    0.7244   -2.4479 C   0  0  0  0  0  0  0  0  0  0  0  0
   -1.2736    1.6297   -2.3686 C   0  0  0  0  0  0  0  0  0  0  0  0
   -2.4336    1.3023   -3.0939 C   0  0  0  0  0  0  0  0  0  0  0  0
   -3.5678    2.1144   -3.0231 C   0  0  0  0  0  0  0  0  0  0  0  0
   -3.5540    3.2687   -2.2395 C   0  0  0  0  0  0  0  0  0  0  0  0
   -2.4027    3.6190   -1.5316 C   0  0  0  0  0  0  0  0  0  0  0  0
   -1.2597    2.8127   -1.5948 C   0  0  0  0  0  0  0  0  0  0  0  0
    0.1698    3.3239   -0.7035 Cl  0  0  0  0  0  0  0  0  0  0  0  0
    1.5140    0.1169   -0.5286 C   0  0  0  0  0  0  0  0  0  0  0  0
    2.7817    0.4985   -0.9905 C   0  0  0  0  0  0  0  0  0  0  0  0
    2.9180    0.9721   -2.1501 O   0  0  0  0  0  0  0  0  0  0  0  0
    3.8781    0.3345   -0.1630 N   0  0  0  0  0  0  0  0  0  0  0  0
    5.2138    0.7482   -0.6393 C   0  0  0  0  0  0  0  0  0  0  0  0
    3.7295   -0.2191    1.1056 C   0  0  0  0  0  0  0  0  0  0  0  0
    4.8288   -0.4057    1.9798 C   0  0  0  0  0  0  0  0  0  0  0  0
    5.9755   -0.1959    4.7424 H   0  0  0  0  0  0  0  0  0  0  0  0
    6.7547   -1.3555    3.5938 H   0  0  0  0  0  0  0  0  0  0  0  0
    5.6669   -1.9719    4.8835 H   0  0  0  0  0  0  0  0  0  0  0  0
    3.2295   -1.7793    4.6608 H   0  0  0  0  0  0  0  0  0  0  0  0
    1.2970   -1.4827    3.1888 H   0  0  0  0  0  0  0  0  0  0  0  0
   -2.0214   -2.6423   -0.8362 H   0  0  0  0  0  0  0  0  0  0  0  0
   -1.9652   -1.5777   -2.2842 H   0  0  0  0  0  0  0  0  0  0  0  0
   -4.2640   -0.8271   -1.9213 H   0  0  0  0  0  0  0  0  0  0  0  0
   -4.2330   -2.6198   -1.9299 H   0  0  0  0  0  0  0  0  0  0  0  0
   -5.6301   -1.3969   -0.0825 H   0  0  0  0  0  0  0  0  0  0  0  0
   -4.6204   -2.7824    0.3960 H   0  0  0  0  0  0  0  0  0  0  0  0
   -4.6431   -0.2375    1.6260 H   0  0  0  0  0  0  0  0  0  0  0  0
   -2.7118   -1.0233    2.7702 H   0  0  0  0  0  0  0  0  0  0  0  0
   -3.8406   -2.2343    2.5763 H   0  0  0  0  0  0  0  0  0  0  0  0
   -3.4704    0.8668   -0.2215 H   0  0  0  0  0  0  0  0  0  0  0  0
   -2.3746    0.7674    1.1883 H   0  0  0  0  0  0  0  0  0  0  0  0
   -0.2386   -0.1237   -3.1436 H   0  0  0  0  0  0  0  0  0  0  0  0
    0.7509    1.3270   -2.8836 H   0  0  0  0  0  0  0  0  0  0  0  0
   -2.4660    0.4127   -3.7099 H   0  0  0  0  0  0  0  0  0  0  0  0
   -4.4590    1.8471   -3.5759 H   0  0  0  0  0  0  0  0  0  0  0  0
   -4.4343    3.8959   -2.1853 H   0  0  0  0  0  0  0  0  0  0  0  0
   -2.3986    4.5222   -0.9347 H   0  0  0  0  0  0  0  0  0  0  0  0
    5.6286    1.5302    0.0318 H   0  0  0  0  0  0  0  0  0  0  0  0
    5.2000    1.1771   -1.6622 H   0  0  0  0  0  0  0  0  0  0  0  0
    5.8945   -0.1294   -0.6642 H   0  0  0  0  0  0  0  0  0  0  0  0
    5.8285   -0.1106    1.6937 H   0  0  0  0  0  0  0  0  0  0  0  0
  1  2  1  0
  2  3  2  0
  3  4  1  0
  4  5  2  0
  5  6  1  0
  6  7  1  0
  7  8  2  0
  8  9  1  0
  9 10  1  0
 10 11  1  0
 11 12  1  0
 12 13  1  0
 13 14  1  0
 13 15  1  0
  8 16  1  0
 16 17  1  0
 17 18  1  0
 18 19  2  0
 19 20  1  0
 20 21  2  0
 21 22  1  0
 22 23  2  0
 23 24  1  0
 16 25  1  0
 25 26  1  0
 26 27  2  0
 26 28  1  0
 28 29  1  0
 28 30  1  0
 30 31  2  0
 31  2  1  0
 30  5  1  0
 25  6  2  0
 15  9  1  0
 23 18  1  0
  1 32  1  0
  1 33  1  0
  1 34  1  0
  3 35  1  0
  4 36  1  0
 10 37  1  0
 10 38  1  0
 11 39  1  0
 11 40  1  0
 12 41  1  0
 12 42  1  0
 13 43  1  1
 14 44  1  0
 14 45  1  0
 15 46  1  0
 15 47  1  0
 17 48  1  0
 17 49  1  0
 19 50  1  0
 20 51  1  0
 21 52  1  0
 22 53  1  0
 29 54  1  0
 29 55  1  0
 29 56  1  0
 31 57  1  0
M  END
$$$$
