
     RDKit          3D

 51 53  0  0  0  0  0  0  0  0999 V2000
   -2.2098    2.0574    0.8554 O   0  0  0  0  0  0  0  0  0  0  0  0
   -2.7591    1.4407   -0.0462 C   0  0  0  0  0  0  0  0  0  0  0  0
   -2.9681    2.1160   -1.3743 C   0  0  0  0  0  0  0  0  0  0  0  0
   -1.7336    2.4127   -1.9679 O   0  0  0  0  0  0  0  0  0  0  0  0
   -3.2504    0.0295    0.1994 C   0  0  2  0  0  0  0  0  0  0  0  0
   -4.4568    0.0316    1.1401 C   0  0  0  0  0  0  0  0  0  0  0  0
   -3.9018   -0.2970    2.5227 C   0  0  0  0  0  0  0  0  0  0  0  0
   -2.5905   -1.0310    2.2752 C   0  0  0  0  0  0  0  0  0  0  0  0
   -2.2318   -0.7497    0.8940 N   0  0  0  0  0  0  0  0  0  0  0  0
   -1.0371   -1.2821    0.2892 C   0  0  0  0  0  0  0  0  0  0  0  0
   -0.2191   -1.9265    1.0023 O   0  0  0  0  0  0  0  0  0  0  0  0
   -0.7687   -1.1520   -1.1939 C   0  0  2  0  0  0  0  0  0  0  0  0
   -1.1813   -2.4218   -1.9388 C   0  0  0  0  0  0  0  0  0  0  0  0
    0.1102   -3.2007   -2.1755 C   0  0  0  0  0  0  0  0  0  0  0  0
    1.2350   -2.1760   -2.0933 C   0  0  0  0  0  0  0  0  0  0  0  0
    0.6596   -1.0111   -1.4415 N   0  0  0  0  0  0  0  0  0  0  0  0
    1.4011    0.1771   -1.1098 C   0  0  0  0  0  0  0  0  0  0  0  0
    0.8068    1.1478   -0.5659 O   0  0  0  0  0  0  0  0  0  0  0  0
    2.8084    0.2684   -1.3843 N   0  0  0  0  0  0  0  0  0  0  0  0
    3.6159    1.4024   -0.9404 C   0  0  0  0  0  0  0  0  0  0  0  0
    3.7913    1.3621    0.5535 C   0  0  0  0  0  0  0  0  0  0  0  0
    4.6016    0.3754    1.1387 C   0  0  0  0  0  0  0  0  0  0  0  0
    4.7452    0.3148    2.5284 C   0  0  0  0  0  0  0  0  0  0  0  0
    4.0782    1.2347    3.3422 C   0  0  0  0  0  0  0  0  0  0  0  0
    3.2655    2.2159    2.7676 C   0  0  0  0  0  0  0  0  0  0  0  0
    3.1196    2.2803    1.3784 C   0  0  0  0  0  0  0  0  0  0  0  0
   -3.5392    1.4565   -2.0606 H   0  0  0  0  0  0  0  0  0  0  0  0
   -3.5666    3.0440   -1.2312 H   0  0  0  0  0  0  0  0  0  0  0  0
   -1.3836    3.2221   -1.5116 H   0  0  0  0  0  0  0  0  0  0  0  0
   -3.5324   -0.4714   -0.7529 H   0  0  0  0  0  0  0  0  0  0  0  0
   -5.1618   -0.7727    0.8336 H   0  0  0  0  0  0  0  0  0  0  0  0
   -5.0072    0.9987    1.1419 H   0  0  0  0  0  0  0  0  0  0  0  0
   -4.6130   -0.9202    3.1072 H   0  0  0  0  0  0  0  0  0  0  0  0
   -3.7028    0.6474    3.0755 H   0  0  0  0  0  0  0  0  0  0  0  0
   -2.7296   -2.1260    2.4086 H   0  0  0  0  0  0  0  0  0  0  0  0
   -1.7988   -0.6632    2.9635 H   0  0  0  0  0  0  0  0  0  0  0  0
   -1.2987   -0.2810   -1.6277 H   0  0  0  0  0  0  0  0  0  0  0  0
   -1.6218   -2.1433   -2.9217 H   0  0  0  0  0  0  0  0  0  0  0  0
   -1.9267   -3.0313   -1.3808 H   0  0  0  0  0  0  0  0  0  0  0  0
    0.2363   -3.9585   -1.3711 H   0  0  0  0  0  0  0  0  0  0  0  0
    0.0988   -3.7134   -3.1617 H   0  0  0  0  0  0  0  0  0  0  0  0
    2.0816   -2.5772   -1.4950 H   0  0  0  0  0  0  0  0  0  0  0  0
    1.5821   -1.9003   -3.1127 H   0  0  0  0  0  0  0  0  0  0  0  0
    3.2876   -0.4943   -1.9120 H   0  0  0  0  0  0  0  0  0  0  0  0
    3.1424    2.3529   -1.2700 H   0  0  0  0  0  0  0  0  0  0  0  0
    4.6167    1.3529   -1.4218 H   0  0  0  0  0  0  0  0  0  0  0  0
    5.1176   -0.3473    0.5185 H   0  0  0  0  0  0  0  0  0  0  0  0
    5.3714   -0.4469    2.9745 H   0  0  0  0  0  0  0  0  0  0  0  0
    4.1892    1.1857    4.4177 H   0  0  0  0  0  0  0  0  0  0  0  0
    2.7465    2.9254    3.3991 H   0  0  0  0  0  0  0  0  0  0  0  0
    2.4815    3.0421    0.9481 H   0  0  0  0  0  0  0  0  0  0  0  0
  1  2  2  0
  2  3  1  0
  3  4  1  0
  2  5  1  0
  5  6  1  0
  6  7  1  0
  7  8  1  0
  8  9  1  0
  9 10  1  0
 10 11  2  0
 10 12  1  0
 12 13  1  0
 13 14  1  0
 14 15  1  0
 15 16  1  0
 16 17  1  0
 17 18  2  0
 17 19  1  0
 19 20  1  0
 20 21  1  0
 21 22  2  0
 22 23  1  0
 23 24  2  0
 24 25  1  0
 25 26  2  0
  9  5  1  0
 16 12  1  0
 26 21  1  0
  3 27  1  0
  3 28  1  0
  4 29  1  0
  5 30  1  6
  6 31  1  0
  6 32  1  0
  7 33  1  0
  7 34  1  0
  8 35  1  0
  8 36  1  0
 12 37  1  6
 13 38  1  0
 13 39  1  0
 14 40  1  0
 14 41  1  0
 15 42  1  0
 15 43  1  0
 19 44  1  0
 20 45  1  0
 20 46  1  0
 22 47  1  0
 23 48  1  0
 24 49  1  0
 25 50  1  0
 26 51  1  0
M  END
$$$$
