
     RDKit          3D

 43 44  0  0  0  0  0  0  0  0999 V2000
   -1.2362   -1.0621    3.4412 N   0  0  0  0  0  0  0  0  0  0  0  0
   -0.5287   -0.3083    2.4059 C   0  0  1  0  0  0  0  0  0  0  0  0
   -0.0897   -1.2484    1.2631 C   0  0  0  0  0  0  0  0  0  0  0  0
    0.7718   -0.5316    0.2157 C   0  0  0  0  0  0  0  0  0  0  0  0
    1.2130   -1.4912   -0.8052 N   0  0  0  0  0  0  0  0  0  0  0  0
    1.7997   -0.8188   -1.9747 C   0  0  0  0  0  0  0  0  0  0  0  0
    3.1114   -0.1461   -1.6458 C   0  0  0  0  0  0  0  0  0  0  0  0
    3.1630    1.2393   -1.4182 C   0  0  0  0  0  0  0  0  0  0  0  0
    4.3741    1.8543   -1.0869 C   0  0  0  0  0  0  0  0  0  0  0  0
    5.5412    1.0913   -0.9765 C   0  0  0  0  0  0  0  0  0  0  0  0
    7.0594    1.8643   -0.5590 Cl  0  0  0  0  0  0  0  0  0  0  0  0
    5.4955   -0.2894   -1.1958 C   0  0  0  0  0  0  0  0  0  0  0  0
    4.2856   -0.9073   -1.5267 C   0  0  0  0  0  0  0  0  0  0  0  0
   -1.3958    0.8209    1.8913 C   0  0  0  0  0  0  0  0  0  0  0  0
   -0.9993    2.0070    2.0553 O   0  0  0  0  0  0  0  0  0  0  0  0
   -2.6185    0.5784    1.1665 N   0  0  0  0  0  0  0  0  0  0  0  0
   -3.5796   -0.4299    1.6575 C   0  0  0  0  0  0  0  0  0  0  0  0
   -4.8956   -0.4043    0.9176 C   0  0  0  0  0  0  0  0  0  0  0  0
   -5.0123    0.1441   -0.2977 C   0  0  0  0  0  0  0  0  0  0  0  0
   -3.8284    0.7726   -0.9666 C   0  0  0  0  0  0  0  0  0  0  0  0
   -2.9735    1.4946    0.0720 C   0  0  0  0  0  0  0  0  0  0  0  0
   -0.5784   -1.7678    3.8457 H   0  0  0  0  0  0  0  0  0  0  0  0
   -1.4707   -0.4067    4.2225 H   0  0  0  0  0  0  0  0  0  0  0  0
    0.3909    0.1282    2.8612 H   0  0  0  0  0  0  0  0  0  0  0  0
   -0.9756   -1.6931    0.7628 H   0  0  0  0  0  0  0  0  0  0  0  0
    0.5045   -2.0832    1.6955 H   0  0  0  0  0  0  0  0  0  0  0  0
    1.6538   -0.0735    0.7167 H   0  0  0  0  0  0  0  0  0  0  0  0
    0.1686    0.2748   -0.2568 H   0  0  0  0  0  0  0  0  0  0  0  0
    1.9270   -2.1316   -0.3840 H   0  0  0  0  0  0  0  0  0  0  0  0
    1.0760   -0.0899   -2.4026 H   0  0  0  0  0  0  0  0  0  0  0  0
    1.9733   -1.5773   -2.7682 H   0  0  0  0  0  0  0  0  0  0  0  0
    2.2656    1.8411   -1.4919 H   0  0  0  0  0  0  0  0  0  0  0  0
    4.4036    2.9225   -0.9137 H   0  0  0  0  0  0  0  0  0  0  0  0
    6.3955   -0.8847   -1.1080 H   0  0  0  0  0  0  0  0  0  0  0  0
    4.2624   -1.9779   -1.6883 H   0  0  0  0  0  0  0  0  0  0  0  0
   -3.7868   -0.2450    2.7331 H   0  0  0  0  0  0  0  0  0  0  0  0
   -3.1492   -1.4459    1.5505 H   0  0  0  0  0  0  0  0  0  0  0  0
   -5.7625   -0.8725    1.3738 H   0  0  0  0  0  0  0  0  0  0  0  0
   -5.9770    0.1512   -0.7960 H   0  0  0  0  0  0  0  0  0  0  0  0
   -3.2232   -0.0221   -1.4542 H   0  0  0  0  0  0  0  0  0  0  0  0
   -4.1696    1.4886   -1.7443 H   0  0  0  0  0  0  0  0  0  0  0  0
   -3.5303    2.3641    0.4848 H   0  0  0  0  0  0  0  0  0  0  0  0
   -2.0550    1.8712   -0.4299 H   0  0  0  0  0  0  0  0  0  0  0  0
  1  2  1  0
  2  3  1  0
  3  4  1  0
  4  5  1  0
  5  6  1  0
  6  7  1  0
  7  8  2  0
  8  9  1  0
  9 10  2  0
 10 11  1  0
 10 12  1  0
 12 13  2  0
  2 14  1  0
 14 15  2  0
 14 16  1  0
 16 17  1  0
 17 18  1  0
 18 19  2  0
 19 20  1  0
 20 21  1  0
 13  7  1  0
 21 16  1  0
  1 22  1  0
  1 23  1  0
  2 24  1  1
  3 25  1  0
  3 26  1  0
  4 27  1  0
  4 28  1  0
  5 29  1  0
  6 30  1  0
  6 31  1  0
  8 32  1  0
  9 33  1  0
 12 34  1  0
 13 35  1  0
 17 36  1  0
 17 37  1  0
 18 38  1  0
 19 39  1  0
 20 40  1  0
 20 41  1  0
 21 42  1  0
 21 43  1  0
M  END
$$$$
