
     RDKit          3D

 49 52  0  0  0  0  0  0  0  0999 V2000
    1.6680   -0.2646   -1.7251 O   0  0  0  0  0  0  0  0  0  0  0  0
    1.8879   -0.3057   -0.4833 C   0  0  0  0  0  0  0  0  0  0  0  0
    0.7403   -0.1430    0.4774 C   0  0  0  0  0  0  0  0  0  0  0  0
   -0.4054    0.4986   -0.1848 N   0  0  0  0  0  0  0  0  0  0  0  0
   -1.6030    0.5133    0.6823 C   0  0  0  0  0  0  0  0  0  0  0  0
   -2.3757   -0.8358    0.5886 C   0  0  0  0  0  0  0  0  0  0  0  0
   -3.5772   -0.8052    1.5613 C   0  0  0  0  0  0  0  0  0  0  0  0
   -4.5325    0.3449    1.1741 C   0  0  0  0  0  0  0  0  0  0  0  0
   -5.0458    0.1223   -0.2659 C   0  0  0  0  0  0  0  0  0  0  0  0
   -3.8493    0.0942   -1.2429 C   0  0  0  0  0  0  0  0  0  0  0  0
   -2.8949   -1.0554   -0.8524 C   0  0  0  0  0  0  0  0  0  0  0  0
   -3.0940    1.4386   -1.1665 C   0  0  0  0  0  0  0  0  0  0  0  0
   -2.5735    1.6622    0.2739 C   0  0  0  0  0  0  0  0  0  0  0  0
   -3.7747    1.6888    1.2471 C   0  0  0  0  0  0  0  0  0  0  0  0
    3.2214   -0.5684   -0.0047 N   0  0  0  0  0  0  0  0  0  0  0  0
    3.5298   -0.8869    1.3822 C   0  0  0  0  0  0  0  0  0  0  0  0
    5.0201   -1.2018    1.4133 C   0  0  0  0  0  0  0  0  0  0  0  0
    5.4098   -1.4704   -0.0366 C   0  0  0  0  0  0  0  0  0  0  0  0
    4.3735   -0.7259   -0.8832 C   0  0  2  0  0  0  0  0  0  0  0  0
    4.8831    0.7194   -1.3778 B   0  0  0  0  0  0  0  0  0  0  0  0
    4.0550    1.5009   -2.2926 O   0  0  0  0  0  0  0  0  0  0  0  0
    6.1240    1.2981   -0.8646 O   0  0  0  0  0  0  0  0  0  0  0  0
    0.4683   -1.1523    0.8481 H   0  0  0  0  0  0  0  0  0  0  0  0
    1.0670    0.4772    1.3410 H   0  0  0  0  0  0  0  0  0  0  0  0
   -0.1194    1.4867   -0.3845 H   0  0  0  0  0  0  0  0  0  0  0  0
   -1.2973    0.6882    1.7411 H   0  0  0  0  0  0  0  0  0  0  0  0
   -1.7192   -1.6844    0.8722 H   0  0  0  0  0  0  0  0  0  0  0  0
   -4.1193   -1.7758    1.5261 H   0  0  0  0  0  0  0  0  0  0  0  0
   -3.2185   -0.6659    2.6048 H   0  0  0  0  0  0  0  0  0  0  0  0
   -5.3939    0.3653    1.8765 H   0  0  0  0  0  0  0  0  0  0  0  0
   -5.6076   -0.8357   -0.3253 H   0  0  0  0  0  0  0  0  0  0  0  0
   -5.7487    0.9364   -0.5490 H   0  0  0  0  0  0  0  0  0  0  0  0
   -4.2195   -0.0658   -2.2788 H   0  0  0  0  0  0  0  0  0  0  0  0
   -3.4295   -2.0286   -0.9175 H   0  0  0  0  0  0  0  0  0  0  0  0
   -2.0435   -1.1026   -1.5658 H   0  0  0  0  0  0  0  0  0  0  0  0
   -2.2488    1.4411   -1.8886 H   0  0  0  0  0  0  0  0  0  0  0  0
   -3.7727    2.2706   -1.4567 H   0  0  0  0  0  0  0  0  0  0  0  0
   -2.0479    2.6406    0.3298 H   0  0  0  0  0  0  0  0  0  0  0  0
   -3.4197    1.8688    2.2857 H   0  0  0  0  0  0  0  0  0  0  0  0
   -4.4591    2.5249    0.9833 H   0  0  0  0  0  0  0  0  0  0  0  0
    3.3031   -0.0214    2.0410 H   0  0  0  0  0  0  0  0  0  0  0  0
    2.9423   -1.7747    1.7025 H   0  0  0  0  0  0  0  0  0  0  0  0
    5.5820   -0.3182    1.7886 H   0  0  0  0  0  0  0  0  0  0  0  0
    5.2386   -2.0781    2.0614 H   0  0  0  0  0  0  0  0  0  0  0  0
    5.3176   -2.5617   -0.2329 H   0  0  0  0  0  0  0  0  0  0  0  0
    6.4618   -1.1757   -0.2424 H   0  0  0  0  0  0  0  0  0  0  0  0
    4.1099   -1.3437   -1.7694 H   0  0  0  0  0  0  0  0  0  0  0  0
    4.3697    1.2445   -3.1960 H   0  0  0  0  0  0  0  0  0  0  0  0
    6.8177    1.0219   -1.5154 H   0  0  0  0  0  0  0  0  0  0  0  0
  1  2  2  0
  2  3  1  0
  3  4  1  0
  4  5  1  0
  5  6  1  0
  6  7  1  0
  7  8  1  0
  8  9  1  0
  9 10  1  0
 10 11  1  0
 10 12  1  0
 12 13  1  0
 13 14  1  0
  2 15  1  0
 15 16  1  0
 16 17  1  0
 17 18  1  0
 18 19  1  0
 19 20  1  0
 20 21  1  0
 20 22  1  0
 13  5  1  0
 19 15  1  0
 11  6  1  0
 14  8  1  0
  3 23  1  0
  3 24  1  0
  4 25  1  0
  5 26  1  0
  6 27  1  0
  7 28  1  0
  7 29  1  0
  8 30  1  0
  9 31  1  0
  9 32  1  0
 10 33  1  0
 11 34  1  0
 11 35  1  0
 12 36  1  0
 12 37  1  0
 13 38  1  0
 14 39  1  0
 14 40  1  0
 16 41  1  0
 16 42  1  0
 17 43  1  0
 17 44  1  0
 18 45  1  0
 18 46  1  0
 19 47  1  6
 21 48  1  0
 22 49  1  0
M  END
$$$$
