
     RDKit          3D

 55 57  0  0  0  0  0  0  0  0999 V2000
    2.8093    1.0642   -0.3791 N   0  0  0  0  0  0  0  0  0  0  0  0
    2.7563   -0.3905   -0.1975 C   0  0  1  0  0  0  0  0  0  0  0  0
    1.4604   -0.9481   -0.8145 C   0  0  0  0  0  0  0  0  0  0  0  0
    0.2364   -0.3769   -0.1460 C   0  0  0  0  0  0  0  0  0  0  0  0
    0.0213   -0.6664    1.0624 O   0  0  0  0  0  0  0  0  0  0  0  0
   -0.6880    0.4775   -0.8509 N   0  0  0  0  0  0  0  0  0  0  0  0
   -0.3605    1.1748   -2.0843 C   0  0  0  0  0  0  0  0  0  0  0  0
   -1.3886    2.2871   -2.2183 C   0  0  0  0  0  0  0  0  0  0  0  0
   -2.5453    1.9019   -1.3034 C   0  0  0  0  0  0  0  0  0  0  0  0
   -1.9766    0.8870   -0.3010 C   0  0  1  0  0  0  0  0  0  0  0  0
   -2.9104   -0.3297   -0.1311 C   0  0  0  0  0  0  0  0  0  0  0  0
   -4.2540    0.0818    0.3272 N   0  0  0  0  0  0  0  0  0  0  0  0
   -4.2798    0.2213    1.7918 C   0  0  0  0  0  0  0  0  0  0  0  0
   -4.0129    1.6406    2.2725 C   0  0  0  0  0  0  0  0  0  0  0  0
   -5.4208    1.0819    2.3172 C   0  0  0  0  0  0  0  0  0  0  0  0
   -5.4386   -1.1125   -0.1636 S   0  0  0  0  0  0  0  0  0  0  0  0
   -6.8010   -0.7037    0.3226 O   0  0  0  0  0  0  0  0  0  0  0  0
   -5.4754   -1.1756   -1.6653 O   0  0  0  0  0  0  0  0  0  0  0  0
   -5.0831   -2.7495    0.4649 C   0  0  0  0  0  0  0  0  0  0  0  0
   -3.8508   -3.1783    0.0112 F   0  0  0  0  0  0  0  0  0  0  0  0
   -5.0886   -2.7401    1.8460 F   0  0  0  0  0  0  0  0  0  0  0  0
   -6.0538   -3.6265    0.0196 F   0  0  0  0  0  0  0  0  0  0  0  0
    3.9881   -1.0848   -0.8224 C   0  0  0  0  0  0  0  0  0  0  0  0
    5.2718   -0.6702   -0.1462 C   0  0  0  0  0  0  0  0  0  0  0  0
    6.0831    0.3229   -0.7218 C   0  0  0  0  0  0  0  0  0  0  0  0
    7.2608    0.7291   -0.0867 C   0  0  0  0  0  0  0  0  0  0  0  0
    8.0368    1.6873   -0.6511 F   0  0  0  0  0  0  0  0  0  0  0  0
    7.6355    0.1508    1.1297 C   0  0  0  0  0  0  0  0  0  0  0  0
    8.7769    0.5445    1.7471 F   0  0  0  0  0  0  0  0  0  0  0  0
    6.8315   -0.8325    1.7128 C   0  0  0  0  0  0  0  0  0  0  0  0
    5.6522   -1.2424    1.0822 C   0  0  0  0  0  0  0  0  0  0  0  0
    4.8828   -2.1944    1.6686 F   0  0  0  0  0  0  0  0  0  0  0  0
    3.0506    1.2862   -1.3726 H   0  0  0  0  0  0  0  0  0  0  0  0
    3.5651    1.4570    0.2272 H   0  0  0  0  0  0  0  0  0  0  0  0
    2.7421   -0.6154    0.8933 H   0  0  0  0  0  0  0  0  0  0  0  0
    1.4477   -0.7560   -1.9076 H   0  0  0  0  0  0  0  0  0  0  0  0
    1.4354   -2.0516   -0.6817 H   0  0  0  0  0  0  0  0  0  0  0  0
   -0.4338    0.4701   -2.9406 H   0  0  0  0  0  0  0  0  0  0  0  0
    0.6598    1.6097   -2.0352 H   0  0  0  0  0  0  0  0  0  0  0  0
   -0.9465    3.2469   -1.8704 H   0  0  0  0  0  0  0  0  0  0  0  0
   -1.7241    2.4023   -3.2719 H   0  0  0  0  0  0  0  0  0  0  0  0
   -2.9515    2.7958   -0.7828 H   0  0  0  0  0  0  0  0  0  0  0  0
   -3.3557    1.4551   -1.9219 H   0  0  0  0  0  0  0  0  0  0  0  0
   -1.8017    1.3816    0.6782 H   0  0  0  0  0  0  0  0  0  0  0  0
   -2.4597   -1.0626    0.5734 H   0  0  0  0  0  0  0  0  0  0  0  0
   -2.9704   -0.8368   -1.1202 H   0  0  0  0  0  0  0  0  0  0  0  0
   -3.9029   -0.5988    2.4400 H   0  0  0  0  0  0  0  0  0  0  0  0
   -3.8795    2.4146    1.4881 H   0  0  0  0  0  0  0  0  0  0  0  0
   -3.5270    1.7090    3.2685 H   0  0  0  0  0  0  0  0  0  0  0  0
   -5.7671    0.8140    3.3376 H   0  0  0  0  0  0  0  0  0  0  0  0
   -6.0930    1.5284    1.5538 H   0  0  0  0  0  0  0  0  0  0  0  0
    3.8785   -2.1879   -0.7329 H   0  0  0  0  0  0  0  0  0  0  0  0
    4.0364   -0.8615   -1.9113 H   0  0  0  0  0  0  0  0  0  0  0  0
    5.8007    0.7849   -1.6598 H   0  0  0  0  0  0  0  0  0  0  0  0
    7.1215   -1.2767    2.6564 H   0  0  0  0  0  0  0  0  0  0  0  0
  1  2  1  0
  2  3  1  0
  3  4  1  0
  4  5  2  0
  4  6  1  0
  6  7  1  0
  7  8  1  0
  8  9  1  0
  9 10  1  0
 10 11  1  0
 11 12  1  0
 12 13  1  0
 13 14  1  0
 14 15  1  0
 12 16  1  0
 16 17  2  0
 16 18  2  0
 16 19  1  0
 19 20  1  0
 19 21  1  0
 19 22  1  0
  2 23  1  0
 23 24  1  0
 24 25  2  0
 25 26  1  0
 26 27  1  0
 26 28  2  0
 28 29  1  0
 28 30  1  0
 30 31  2  0
 31 32  1  0
 10  6  1  0
 15 13  1  0
 31 24  1  0
  1 33  1  0
  1 34  1  0
  2 35  1  1
  3 36  1  0
  3 37  1  0
  7 38  1  0
  7 39  1  0
  8 40  1  0
  8 41  1  0
  9 42  1  0
  9 43  1  0
 10 44  1  1
 11 45  1  0
 11 46  1  0
 13 47  1  0
 14 48  1  0
 14 49  1  0
 15 50  1  0
 15 51  1  0
 23 52  1  0
 23 53  1  0
 25 54  1  0
 30 55  1  0
M  END
$$$$
