
     RDKit          3D

 66 68  0  0  0  0  0  0  0  0999 V2000
   -6.2749   -3.5142    1.1351 C   0  0  0  0  0  0  0  0  0  0  0  0
   -5.6401   -2.9545   -0.0101 O   0  0  0  0  0  0  0  0  0  0  0  0
   -4.5038   -2.1306    0.0321 C   0  0  0  0  0  0  0  0  0  0  0  0
   -3.8786   -1.7812    1.2425 C   0  0  0  0  0  0  0  0  0  0  0  0
   -2.7411   -0.9608    1.2492 C   0  0  0  0  0  0  0  0  0  0  0  0
   -2.2439   -0.4407    0.0449 C   0  0  0  0  0  0  0  0  0  0  0  0
   -2.8539   -0.8144   -1.1658 C   0  0  0  0  0  0  0  0  0  0  0  0
   -3.9853   -1.6504   -1.1776 C   0  0  0  0  0  0  0  0  0  0  0  0
   -4.6238   -2.0236   -2.3712 O   0  0  0  0  0  0  0  0  0  0  0  0
   -4.2178   -1.6033   -3.6698 C   0  0  0  0  0  0  0  0  0  0  0  0
   -1.0305    0.4783    0.0413 C   0  0  0  0  0  0  0  0  0  0  0  0
   -1.3800    2.0179   -0.0079 C   0  0  0  0  0  0  0  0  0  0  0  0
   -2.1440    2.4835    1.2464 C   0  0  0  0  0  0  0  0  0  0  0  0
   -2.2450    2.3385   -1.2497 C   0  0  0  0  0  0  0  0  0  0  0  0
   -0.0846    2.8545   -0.1198 C   0  0  0  0  0  0  0  0  0  0  0  0
   -0.1068    0.1427    1.1563 N   0  0  0  0  0  0  0  0  0  0  0  0
    1.3227    0.2243    0.9389 C   0  0  0  0  0  0  0  0  0  0  0  0
    1.7833    0.0876   -0.2258 O   0  0  0  0  0  0  0  0  0  0  0  0
    2.2720    0.4206    2.1009 C   0  0  0  0  0  0  0  0  0  0  0  0
    3.6725    0.9646    1.7329 C   0  0  2  0  0  0  0  0  0  0  0  0
    3.5787    2.1857    0.9340 N   0  0  0  0  0  0  0  0  0  0  0  0
    4.5261   -0.1002    1.0721 C   0  0  0  0  0  0  0  0  0  0  0  0
    5.1310   -0.9142    1.8220 O   0  0  0  0  0  0  0  0  0  0  0  0
    4.5893   -0.2899   -0.3572 N   0  0  0  0  0  0  0  0  0  0  0  0
    4.6664   -1.6322   -0.9228 C   0  0  0  0  0  0  0  0  0  0  0  0
    5.1624   -1.4593   -2.3512 C   0  0  0  0  0  0  0  0  0  0  0  0
    5.8176   -0.0853   -2.3781 C   0  0  0  0  0  0  0  0  0  0  0  0
    5.1133    0.7117   -1.2818 C   0  0  1  0  0  0  0  0  0  0  0  0
    4.0128    1.4999   -1.8619 C   0  0  0  0  0  0  0  0  0  0  0  0
    3.1495    2.1195   -2.3204 N   0  0  0  0  0  0  0  0  0  0  0  0
   -0.5674   -0.4784    2.4167 C   0  0  0  0  0  0  0  0  0  0  0  0
   -2.0899   -0.5974    2.5484 C   0  0  0  0  0  0  0  0  0  0  0  0
   -5.5676   -4.1752    1.6791 H   0  0  0  0  0  0  0  0  0  0  0  0
   -7.1452   -4.1189    0.8075 H   0  0  0  0  0  0  0  0  0  0  0  0
   -6.6362   -2.7055    1.8049 H   0  0  0  0  0  0  0  0  0  0  0  0
   -4.2674   -2.1479    2.1831 H   0  0  0  0  0  0  0  0  0  0  0  0
   -2.4450   -0.4448   -2.0959 H   0  0  0  0  0  0  0  0  0  0  0  0
   -4.9030   -2.0424   -4.4235 H   0  0  0  0  0  0  0  0  0  0  0  0
   -3.1859   -1.9555   -3.8800 H   0  0  0  0  0  0  0  0  0  0  0  0
   -4.2680   -0.4964   -3.7460 H   0  0  0  0  0  0  0  0  0  0  0  0
   -0.5066    0.2490   -0.9134 H   0  0  0  0  0  0  0  0  0  0  0  0
   -1.5376    2.3177    2.1613 H   0  0  0  0  0  0  0  0  0  0  0  0
   -3.1145    1.9523    1.3379 H   0  0  0  0  0  0  0  0  0  0  0  0
   -2.3655    3.5713    1.1863 H   0  0  0  0  0  0  0  0  0  0  0  0
   -2.4076    3.4339   -1.3478 H   0  0  0  0  0  0  0  0  0  0  0  0
   -3.2477    1.8682   -1.1738 H   0  0  0  0  0  0  0  0  0  0  0  0
   -1.7486    1.9813   -2.1775 H   0  0  0  0  0  0  0  0  0  0  0  0
   -0.3179    3.9307   -0.2717 H   0  0  0  0  0  0  0  0  0  0  0  0
    0.5320    2.5126   -0.9783 H   0  0  0  0  0  0  0  0  0  0  0  0
    0.5189    2.7831    0.8084 H   0  0  0  0  0  0  0  0  0  0  0  0
    2.3794   -0.5439    2.6427 H   0  0  0  0  0  0  0  0  0  0  0  0
    1.8105    1.1446    2.8062 H   0  0  0  0  0  0  0  0  0  0  0  0
    4.1719    1.2265    2.6949 H   0  0  0  0  0  0  0  0  0  0  0  0
    2.9848    2.8750    1.4501 H   0  0  0  0  0  0  0  0  0  0  0  0
    4.5308    2.6164    0.8877 H   0  0  0  0  0  0  0  0  0  0  0  0
    5.3921   -2.2516   -0.3516 H   0  0  0  0  0  0  0  0  0  0  0  0
    3.6658   -2.1150   -0.9041 H   0  0  0  0  0  0  0  0  0  0  0  0
    5.8806   -2.2585   -2.6361 H   0  0  0  0  0  0  0  0  0  0  0  0
    4.2982   -1.4720   -3.0515 H   0  0  0  0  0  0  0  0  0  0  0  0
    5.7440    0.3836   -3.3850 H   0  0  0  0  0  0  0  0  0  0  0  0
    6.8938   -0.1925   -2.1170 H   0  0  0  0  0  0  0  0  0  0  0  0
    5.8383    1.3845   -0.7744 H   0  0  0  0  0  0  0  0  0  0  0  0
   -0.2032    0.1114    3.2839 H   0  0  0  0  0  0  0  0  0  0  0  0
   -0.1283   -1.4977    2.4898 H   0  0  0  0  0  0  0  0  0  0  0  0
   -2.3082   -1.3710    3.3173 H   0  0  0  0  0  0  0  0  0  0  0  0
   -2.5233    0.3478    2.9285 H   0  0  0  0  0  0  0  0  0  0  0  0
  1  2  1  0
  2  3  1  0
  3  4  2  0
  4  5  1  0
  5  6  2  0
  6  7  1  0
  7  8  2  0
  8  9  1  0
  9 10  1  0
  6 11  1  0
 11 12  1  0
 12 13  1  0
 12 14  1  0
 12 15  1  0
 11 16  1  0
 16 17  1  0
 17 18  2  0
 17 19  1  0
 19 20  1  0
 20 21  1  0
 20 22  1  0
 22 23  2  0
 22 24  1  0
 24 25  1  0
 25 26  1  0
 26 27  1  0
 27 28  1  0
 28 29  1  0
 29 30  3  0
 16 31  1  0
 31 32  1  0
  8  3  1  0
 28 24  1  0
 32  5  1  0
  1 33  1  0
  1 34  1  0
  1 35  1  0
  4 36  1  0
  7 37  1  0
 10 38  1  0
 10 39  1  0
 10 40  1  0
 11 41  1  0
 13 42  1  0
 13 43  1  0
 13 44  1  0
 14 45  1  0
 14 46  1  0
 14 47  1  0
 15 48  1  0
 15 49  1  0
 15 50  1  0
 19 51  1  0
 19 52  1  0
 20 53  1  1
 21 54  1  0
 21 55  1  0
 25 56  1  0
 25 57  1  0
 26 58  1  0
 26 59  1  0
 27 60  1  0
 27 61  1  0
 28 62  1  1
 31 63  1  0
 31 64  1  0
 32 65  1  0
 32 66  1  0
M  END
$$$$
