
     RDKit          3D

 49 52  0  0  0  0  0  0  0  0999 V2000
    7.5091   -1.3267    0.9405 C   0  0  0  0  0  0  0  0  0  0  0  0
    6.2115   -0.6385    0.6801 C   0  0  0  0  0  0  0  0  0  0  0  0
    6.0635    0.7082    0.3576 C   0  0  0  0  0  0  0  0  0  0  0  0
    4.6994    0.8545    0.2913 C   0  0  0  0  0  0  0  0  0  0  0  0
    3.9961    1.9769    0.0138 N   0  0  0  0  0  0  0  0  0  0  0  0
    2.6342    1.9154    0.0149 C   0  0  0  0  0  0  0  0  0  0  0  0
    1.9662    0.7046    0.3083 C   0  0  0  0  0  0  0  0  0  0  0  0
    0.5288    0.6607    0.3332 N   0  0  0  0  0  0  0  0  0  0  0  0
   -0.2206    1.0979   -0.8500 C   0  0  0  0  0  0  0  0  0  0  0  0
   -1.5941    0.3980   -0.9445 C   0  0  2  0  0  0  0  0  0  0  0  0
   -2.3897    0.9487   -2.1516 C   0  0  0  0  0  0  0  0  0  0  0  0
   -1.6706    0.7156   -3.4016 N   0  0  0  0  0  0  0  0  0  0  0  0
   -2.3671    0.5968    0.3903 C   0  0  1  0  0  0  0  0  0  0  0  0
   -3.7866    0.0414    0.3571 C   0  0  0  0  0  0  0  0  0  0  0  0
   -4.8697    0.9079    0.6006 C   0  0  0  0  0  0  0  0  0  0  0  0
   -6.1838    0.4322    0.5744 C   0  0  0  0  0  0  0  0  0  0  0  0
   -7.2144    1.2818    0.8090 F   0  0  0  0  0  0  0  0  0  0  0  0
   -6.4353   -0.9150    0.3071 C   0  0  0  0  0  0  0  0  0  0  0  0
   -7.7098   -1.3772    0.2813 F   0  0  0  0  0  0  0  0  0  0  0  0
   -5.3729   -1.7882    0.0670 C   0  0  0  0  0  0  0  0  0  0  0  0
   -4.0547   -1.3211    0.0912 C   0  0  0  0  0  0  0  0  0  0  0  0
   -3.0521   -2.2029   -0.1466 F   0  0  0  0  0  0  0  0  0  0  0  0
   -1.5920   -0.0023    1.5782 C   0  0  0  0  0  0  0  0  0  0  0  0
   -0.1590    0.4344    1.5764 C   0  0  0  0  0  0  0  0  0  0  0  0
    0.4601    0.5223    2.6717 O   0  0  0  0  0  0  0  0  0  0  0  0
    2.7430   -0.4496    0.5702 C   0  0  0  0  0  0  0  0  0  0  0  0
    2.1100   -1.7800    0.8764 C   0  0  0  0  0  0  0  0  0  0  0  0
    4.0959   -0.3084    0.5626 N   0  0  0  0  0  0  0  0  0  0  0  0
    5.0036   -1.2378    0.8121 N   0  0  0  0  0  0  0  0  0  0  0  0
    7.8122   -1.1576    1.9945 H   0  0  0  0  0  0  0  0  0  0  0  0
    7.4027   -2.4172    0.7615 H   0  0  0  0  0  0  0  0  0  0  0  0
    8.2942   -0.9273    0.2645 H   0  0  0  0  0  0  0  0  0  0  0  0
    6.8308    1.4564    0.2083 H   0  0  0  0  0  0  0  0  0  0  0  0
    2.0655    2.8117   -0.1946 H   0  0  0  0  0  0  0  0  0  0  0  0
    0.3705    0.8689   -1.7641 H   0  0  0  0  0  0  0  0  0  0  0  0
   -0.3597    2.2001   -0.7993 H   0  0  0  0  0  0  0  0  0  0  0  0
   -1.4106   -0.6856   -1.1092 H   0  0  0  0  0  0  0  0  0  0  0  0
   -3.3858    0.4583   -2.2163 H   0  0  0  0  0  0  0  0  0  0  0  0
   -2.5565    2.0410   -2.0219 H   0  0  0  0  0  0  0  0  0  0  0  0
   -1.6690   -0.3133   -3.5905 H   0  0  0  0  0  0  0  0  0  0  0  0
   -2.2197    1.1593   -4.1730 H   0  0  0  0  0  0  0  0  0  0  0  0
   -2.4214    1.6956    0.5700 H   0  0  0  0  0  0  0  0  0  0  0  0
   -4.6991    1.9567    0.8095 H   0  0  0  0  0  0  0  0  0  0  0  0
   -5.5709   -2.8324   -0.1389 H   0  0  0  0  0  0  0  0  0  0  0  0
   -2.0757    0.3140    2.5285 H   0  0  0  0  0  0  0  0  0  0  0  0
   -1.6042   -1.1111    1.5401 H   0  0  0  0  0  0  0  0  0  0  0  0
    2.7872   -2.6118    0.5914 H   0  0  0  0  0  0  0  0  0  0  0  0
    1.1661   -1.9078    0.3055 H   0  0  0  0  0  0  0  0  0  0  0  0
    1.8947   -1.8474    1.9628 H   0  0  0  0  0  0  0  0  0  0  0  0
  1  2  1  0
  2  3  1  0
  3  4  2  0
  4  5  1  0
  5  6  2  0
  6  7  1  0
  7  8  1  0
  8  9  1  0
  9 10  1  0
 10 11  1  0
 11 12  1  0
 10 13  1  0
 13 14  1  0
 14 15  2  0
 15 16  1  0
 16 17  1  0
 16 18  2  0
 18 19  1  0
 18 20  1  0
 20 21  2  0
 21 22  1  0
 13 23  1  0
 23 24  1  0
 24 25  2  0
  7 26  2  0
 26 27  1  0
 26 28  1  0
 28 29  1  0
 29  2  2  0
 28  4  1  0
 24  8  1  0
 21 14  1  0
  1 30  1  0
  1 31  1  0
  1 32  1  0
  3 33  1  0
  6 34  1  0
  9 35  1  0
  9 36  1  0
 10 37  1  6
 11 38  1  0
 11 39  1  0
 12 40  1  0
 12 41  1  0
 13 42  1  1
 15 43  1  0
 20 44  1  0
 23 45  1  0
 23 46  1  0
 27 47  1  0
 27 48  1  0
 27 49  1  0
M  END
$$$$
