
     RDKit          3D

 58 59  0  0  0  0  0  0  0  0999 V2000
    3.2451   -0.0210   -3.0071 C   0  0  0  0  0  0  0  0  0  0  0  0
    1.7890    0.4780   -2.9398 C   0  0  1  0  0  0  0  0  0  0  0  0
    0.9362   -0.3709   -2.0082 C   0  0  0  0  0  0  0  0  0  0  0  0
    1.3868   -0.7376   -0.7252 C   0  0  0  0  0  0  0  0  0  0  0  0
    0.5388   -1.4024    0.1629 C   0  0  0  0  0  0  0  0  0  0  0  0
   -0.7751   -1.7233   -0.2118 C   0  0  0  0  0  0  0  0  0  0  0  0
   -1.6880   -2.3813    0.7528 C   0  0  0  0  0  0  0  0  0  0  0  0
   -1.7924   -1.8978    2.0676 C   0  0  0  0  0  0  0  0  0  0  0  0
   -2.6343   -2.4883    2.9703 N   0  0  0  0  0  0  0  0  0  0  0  0
   -2.7346   -1.9431    4.3301 C   0  0  0  0  0  0  0  0  0  0  0  0
   -3.4056   -3.5604    2.6025 C   0  0  0  0  0  0  0  0  0  0  0  0
   -4.1946   -4.0977    3.4276 O   0  0  0  0  0  0  0  0  0  0  0  0
   -3.3272   -4.0735    1.3055 C   0  0  0  0  0  0  0  0  0  0  0  0
   -2.4678   -3.4863    0.3798 C   0  0  0  0  0  0  0  0  0  0  0  0
   -2.3773   -4.0155   -0.8669 F   0  0  0  0  0  0  0  0  0  0  0  0
   -1.2232   -1.3736   -1.4956 C   0  0  0  0  0  0  0  0  0  0  0  0
   -0.3779   -0.7011   -2.3822 C   0  0  0  0  0  0  0  0  0  0  0  0
    1.6508    1.9910   -2.6020 C   0  0  2  0  0  0  0  0  0  0  0  0
    2.3066    2.8137   -3.6245 N   0  0  0  0  0  0  0  0  0  0  0  0
    2.1532    2.3390   -1.2090 C   0  0  0  0  0  0  0  0  0  0  0  0
    3.3866    2.5327   -1.0285 O   0  0  0  0  0  0  0  0  0  0  0  0
    1.2647    2.3856   -0.0757 N   0  0  0  0  0  0  0  0  0  0  0  0
    1.7451    2.3301    1.2941 C   0  0  0  0  0  0  0  0  0  0  0  0
    0.5029    2.1618    2.1574 C   0  0  0  0  0  0  0  0  0  0  0  0
   -0.6684    2.6029    1.2837 C   0  0  2  0  0  0  0  0  0  0  0  0
   -1.7806    1.8084    1.5078 F   0  0  0  0  0  0  0  0  0  0  0  0
   -0.1849    2.4754   -0.1558 C   0  0  0  0  0  0  0  0  0  0  0  0
    0.8038    0.9052   -1.2219 O   0  0  0  0  0  0  0  0  0  0  0  0
    0.4749    0.1322   -0.2825 C   0  0  0  0  0  0  0  0  0  0  0  0
    1.4518   -0.5946    0.3915 O   0  0  0  0  0  0  0  0  0  0  0  0
   -0.9538    0.0416    0.1459 C   0  0  0  0  0  0  0  0  0  0  0  0
   -1.1780   -1.1598    0.7931 F   0  0  0  0  0  0  0  0  0  0  0  0
   -1.7842    0.1200   -0.9576 F   0  0  0  0  0  0  0  0  0  0  0  0
   -1.2410    1.0830    1.0078 F   0  0  0  0  0  0  0  0  0  0  0  0
    3.8044    0.2019   -2.0767 H   0  0  0  0  0  0  0  0  0  0  0  0
    3.7767    0.4518   -3.8590 H   0  0  0  0  0  0  0  0  0  0  0  0
    3.2612   -1.1193   -3.1741 H   0  0  0  0  0  0  0  0  0  0  0  0
    1.3896    0.3472   -3.9714 H   0  0  0  0  0  0  0  0  0  0  0  0
    2.3823   -0.4806   -0.3913 H   0  0  0  0  0  0  0  0  0  0  0  0
    0.9079   -1.6603    1.1479 H   0  0  0  0  0  0  0  0  0  0  0  0
   -1.2061   -1.0334    2.3586 H   0  0  0  0  0  0  0  0  0  0  0  0
   -2.5973   -2.7545    5.0767 H   0  0  0  0  0  0  0  0  0  0  0  0
   -3.7333   -1.4788    4.4736 H   0  0  0  0  0  0  0  0  0  0  0  0
   -1.9576   -1.1722    4.5243 H   0  0  0  0  0  0  0  0  0  0  0  0
   -3.9286   -4.9271    1.0170 H   0  0  0  0  0  0  0  0  0  0  0  0
   -2.2407   -1.5855   -1.7995 H   0  0  0  0  0  0  0  0  0  0  0  0
   -0.7618   -0.4093   -3.3519 H   0  0  0  0  0  0  0  0  0  0  0  0
    0.5673    2.2295   -2.6586 H   0  0  0  0  0  0  0  0  0  0  0  0
    3.3458    2.7364   -3.5413 H   0  0  0  0  0  0  0  0  0  0  0  0
    2.0606    3.8159   -3.4515 H   0  0  0  0  0  0  0  0  0  0  0  0
    2.2703    3.2775    1.5434 H   0  0  0  0  0  0  0  0  0  0  0  0
    2.4333    1.4677    1.4312 H   0  0  0  0  0  0  0  0  0  0  0  0
    0.5683    2.7704    3.0852 H   0  0  0  0  0  0  0  0  0  0  0  0
    0.3863    1.0895    2.4304 H   0  0  0  0  0  0  0  0  0  0  0  0
   -0.9198    3.6637    1.5039 H   0  0  0  0  0  0  0  0  0  0  0  0
   -0.4848    3.3677   -0.7468 H   0  0  0  0  0  0  0  0  0  0  0  0
   -0.5977    1.5571   -0.6210 H   0  0  0  0  0  0  0  0  0  0  0  0
    2.4265   -0.5277    0.1237 H   0  0  0  0  0  0  0  0  0  0  0  0
  1  2  1  0
  2  3  1  0
  3  4  2  0
  4  5  1  0
  5  6  2  0
  6  7  1  0
  7  8  2  0
  8  9  1  0
  9 10  1  0
  9 11  1  0
 11 12  2  0
 11 13  1  0
 13 14  2  0
 14 15  1  0
  6 16  1  0
 16 17  2  0
  2 18  1  0
 18 19  1  0
 18 20  1  0
 20 21  2  0
 20 22  1  0
 22 23  1  0
 23 24  1  0
 24 25  1  0
 25 26  1  0
 25 27  1  0
 28 29  2  0
 29 30  1  0
 29 31  1  0
 31 32  1  0
 31 33  1  0
 31 34  1  0
 17  3  1  0
 27 22  1  0
 14  7  1  0
  1 35  1  0
  1 36  1  0
  1 37  1  0
  2 38  1  6
  4 39  1  0
  5 40  1  0
  8 41  1  0
 10 42  1  0
 10 43  1  0
 10 44  1  0
 13 45  1  0
 16 46  1  0
 17 47  1  0
 18 48  1  1
 19 49  1  0
 19 50  1  0
 23 51  1  0
 23 52  1  0
 24 53  1  0
 24 54  1  0
 25 55  1  1
 27 56  1  0
 27 57  1  0
 30 58  1  0
M  END
$$$$
