
     RDKit          3D

 50 51  0  0  0  0  0  0  0  0999 V2000
   -2.0980   -0.5088   -1.6673 C   0  0  0  0  0  0  0  0  0  0  0  0
   -2.8023    0.4135   -0.6639 C   0  0  2  0  0  0  0  0  0  0  0  0
   -1.7788    1.1185    0.2454 C   0  0  0  0  0  0  0  0  0  0  0  0
   -1.1537    0.1760    1.2015 N   0  0  0  0  0  0  0  0  0  0  0  0
    0.1972    0.3708    1.6930 C   0  0  0  0  0  0  0  0  0  0  0  0
    0.6746   -0.4526    2.5220 O   0  0  0  0  0  0  0  0  0  0  0  0
    1.0759    1.5325    1.2810 C   0  0  0  0  0  0  0  0  0  0  0  0
    2.1470    1.1683    0.2207 C   0  0  2  0  0  0  0  0  0  0  0  0
    1.5485    0.7642   -1.0544 N   0  0  0  0  0  0  0  0  0  0  0  0
    3.1221    0.0820    0.7185 C   0  0  0  0  0  0  0  0  0  0  0  0
    4.3029   -0.0614   -0.2101 C   0  0  0  0  0  0  0  0  0  0  0  0
    4.2794   -1.0227   -1.2352 C   0  0  0  0  0  0  0  0  0  0  0  0
    5.3578   -1.1417   -2.1174 C   0  0  0  0  0  0  0  0  0  0  0  0
    5.3265   -2.0749   -3.1007 F   0  0  0  0  0  0  0  0  0  0  0  0
    6.4645   -0.2972   -1.9879 C   0  0  0  0  0  0  0  0  0  0  0  0
    7.5104   -0.4106   -2.8436 F   0  0  0  0  0  0  0  0  0  0  0  0
    6.4917    0.6691   -0.9785 C   0  0  0  0  0  0  0  0  0  0  0  0
    5.4155    0.7927   -0.0935 C   0  0  0  0  0  0  0  0  0  0  0  0
    5.4573    1.7452    0.8726 F   0  0  0  0  0  0  0  0  0  0  0  0
   -1.9626   -0.8704    1.8660 C   0  0  0  0  0  0  0  0  0  0  0  0
   -3.3506   -0.9620    1.3092 C   0  0  0  0  0  0  0  0  0  0  0  0
   -4.4130   -1.6479    1.8616 C   0  0  0  0  0  0  0  0  0  0  0  0
   -5.4863   -1.4410    1.0138 C   0  0  0  0  0  0  0  0  0  0  0  0
   -5.0270   -0.6480   -0.0277 C   0  0  0  0  0  0  0  0  0  0  0  0
   -5.8743   -0.1072   -1.1461 C   0  0  0  0  0  0  0  0  0  0  0  0
   -7.1408   -0.6633   -1.1090 F   0  0  0  0  0  0  0  0  0  0  0  0
   -5.2979   -0.4056   -2.3654 F   0  0  0  0  0  0  0  0  0  0  0  0
   -5.9860    1.2644   -1.0168 F   0  0  0  0  0  0  0  0  0  0  0  0
   -3.7200   -0.3608    0.1684 N   0  0  0  0  0  0  0  0  0  0  0  0
    0.6878    0.0000    0.0000 Cl  0  0  0  0  0  0  0  0  0  0  0  0
   -2.8431   -1.0253   -2.3058 H   0  0  0  0  0  0  0  0  0  0  0  0
   -1.4965   -1.2792   -1.1392 H   0  0  0  0  0  0  0  0  0  0  0  0
   -1.4272    0.0831   -2.3256 H   0  0  0  0  0  0  0  0  0  0  0  0
   -3.3628    1.1906   -1.2271 H   0  0  0  0  0  0  0  0  0  0  0  0
   -2.2914    1.9204    0.8193 H   0  0  0  0  0  0  0  0  0  0  0  0
   -1.0297    1.6001   -0.4084 H   0  0  0  0  0  0  0  0  0  0  0  0
    0.4780    2.3998    0.9384 H   0  0  0  0  0  0  0  0  0  0  0  0
    1.6010    1.9000    2.1898 H   0  0  0  0  0  0  0  0  0  0  0  0
    2.7399    2.0939    0.0418 H   0  0  0  0  0  0  0  0  0  0  0  0
    0.8820   -0.0262   -0.9010 H   0  0  0  0  0  0  0  0  0  0  0  0
    1.0193    1.5723   -1.4536 H   0  0  0  0  0  0  0  0  0  0  0  0
    3.4862    0.3408    1.7368 H   0  0  0  0  0  0  0  0  0  0  0  0
    2.5951   -0.8931    0.8035 H   0  0  0  0  0  0  0  0  0  0  0  0
    3.4246   -1.6777   -1.3518 H   0  0  0  0  0  0  0  0  0  0  0  0
    7.3469    1.3259   -0.8835 H   0  0  0  0  0  0  0  0  0  0  0  0
   -1.4714   -1.8573    1.7277 H   0  0  0  0  0  0  0  0  0  0  0  0
   -2.0269   -0.6526    2.9541 H   0  0  0  0  0  0  0  0  0  0  0  0
   -4.4127   -2.2195    2.7802 H   0  0  0  0  0  0  0  0  0  0  0  0
   -6.4913   -1.8173    1.1523 H   0  0  0  0  0  0  0  0  0  0  0  0
   -0.6878    0.0000    0.0000 H   0  0  0  0  0  0  0  0  0  0  0  0
  1  2  1  0
  2  3  1  0
  3  4  1  0
  4  5  1  0
  5  6  2  0
  5  7  1  0
  7  8  1  0
  8  9  1  0
  8 10  1  0
 10 11  1  0
 11 12  2  0
 12 13  1  0
 13 14  1  0
 13 15  2  0
 15 16  1  0
 15 17  1  0
 17 18  2  0
 18 19  1  0
  4 20  1  0
 20 21  1  0
 21 22  2  0
 22 23  1  0
 23 24  2  0
 24 25  1  0
 25 26  1  0
 25 27  1  0
 25 28  1  0
 24 29  1  0
 29  2  1  0
 18 11  1  0
 29 21  1  0
  1 31  1  0
  1 32  1  0
  1 33  1  0
  2 34  1  6
  3 35  1  0
  3 36  1  0
  7 37  1  0
  7 38  1  0
  8 39  1  6
  9 40  1  0
  9 41  1  0
 10 42  1  0
 10 43  1  0
 12 44  1  0
 17 45  1  0
 20 46  1  0
 20 47  1  0
 22 48  1  0
 23 49  1  0
 30 50  1  0
M  END
$$$$
