
     RDKit          3D

 55 56  0  0  0  0  0  0  0  0999 V2000
    1.4715   -1.7468   -1.4592 C   0  0  0  0  0  0  0  0  0  0  0  0
    0.7507   -0.4383   -1.8374 C   0  0  1  0  0  0  0  0  0  0  0  0
   -0.5731   -0.3025   -1.0978 C   0  0  0  0  0  0  0  0  0  0  0  0
   -0.6625   -0.4911    0.2946 C   0  0  0  0  0  0  0  0  0  0  0  0
   -1.8814   -0.3272    0.9574 C   0  0  0  0  0  0  0  0  0  0  0  0
   -3.0374    0.0331    0.2462 C   0  0  0  0  0  0  0  0  0  0  0  0
   -4.3278    0.2147    0.9547 C   0  0  0  0  0  0  0  0  0  0  0  0
   -4.3760    0.9594    2.1478 C   0  0  0  0  0  0  0  0  0  0  0  0
   -5.5876    1.1418    2.8206 C   0  0  0  0  0  0  0  0  0  0  0  0
   -6.7616    0.5814    2.3136 C   0  0  0  0  0  0  0  0  0  0  0  0
   -6.7264   -0.1652    1.1338 C   0  0  0  0  0  0  0  0  0  0  0  0
   -5.5180   -0.3517    0.4538 C   0  0  0  0  0  0  0  0  0  0  0  0
   -5.5074   -1.1134   -0.6697 F   0  0  0  0  0  0  0  0  0  0  0  0
   -2.9468    0.2411   -1.1396 C   0  0  0  0  0  0  0  0  0  0  0  0
   -1.7277    0.0789   -1.8031 C   0  0  0  0  0  0  0  0  0  0  0  0
    1.6112    0.8549   -1.6831 C   0  0  2  0  0  0  0  0  0  0  0  0
    2.6676    0.9585   -2.6962 N   0  0  0  0  0  0  0  0  0  0  0  0
    2.1499    1.0738   -0.2797 C   0  0  0  0  0  0  0  0  0  0  0  0
    1.4986    1.8370    0.4854 O   0  0  0  0  0  0  0  0  0  0  0  0
    3.3108    0.3981    0.2462 N   0  0  0  0  0  0  0  0  0  0  0  0
    3.5009    0.2098    1.6750 C   0  0  0  0  0  0  0  0  0  0  0  0
    4.8014   -0.5659    1.8194 C   0  0  0  0  0  0  0  0  0  0  0  0
    5.5466   -0.3608    0.5047 C   0  0  2  0  0  0  0  0  0  0  0  0
    6.4354    0.6945    0.6326 F   0  0  0  0  0  0  0  0  0  0  0  0
    4.4749   -0.0142   -0.5227 C   0  0  0  0  0  0  0  0  0  0  0  0
    0.8434    0.8351   -1.2449 O   0  0  0  0  0  0  0  0  0  0  0  0
    0.4798    0.1014   -0.2870 C   0  0  0  0  0  0  0  0  0  0  0  0
    1.4213   -0.6591    0.3999 O   0  0  0  0  0  0  0  0  0  0  0  0
   -0.9498    0.0936    0.1481 C   0  0  0  0  0  0  0  0  0  0  0  0
   -1.2317   -1.0790    0.8249 F   0  0  0  0  0  0  0  0  0  0  0  0
   -1.7800    0.1878   -0.9541 F   0  0  0  0  0  0  0  0  0  0  0  0
   -1.1799    1.1685    0.9857 F   0  0  0  0  0  0  0  0  0  0  0  0
    0.7627   -2.5994   -1.5318 H   0  0  0  0  0  0  0  0  0  0  0  0
    2.3037   -1.9577   -2.1604 H   0  0  0  0  0  0  0  0  0  0  0  0
    1.8714   -1.7184   -0.4263 H   0  0  0  0  0  0  0  0  0  0  0  0
    0.5194   -0.5363   -2.9224 H   0  0  0  0  0  0  0  0  0  0  0  0
    0.2092   -0.7604    0.8751 H   0  0  0  0  0  0  0  0  0  0  0  0
   -1.9235   -0.4916    2.0271 H   0  0  0  0  0  0  0  0  0  0  0  0
   -3.4786    1.4128    2.5503 H   0  0  0  0  0  0  0  0  0  0  0  0
   -5.6163    1.7204    3.7349 H   0  0  0  0  0  0  0  0  0  0  0  0
   -7.6986    0.7230    2.8366 H   0  0  0  0  0  0  0  0  0  0  0  0
   -7.6371   -0.6058    0.7489 H   0  0  0  0  0  0  0  0  0  0  0  0
   -3.8155    0.5507   -1.7072 H   0  0  0  0  0  0  0  0  0  0  0  0
   -1.6851    0.2588   -2.8701 H   0  0  0  0  0  0  0  0  0  0  0  0
    0.9176    1.7081   -1.8749 H   0  0  0  0  0  0  0  0  0  0  0  0
    2.2355    1.2753   -3.5950 H   0  0  0  0  0  0  0  0  0  0  0  0
    3.0826    0.0232   -2.8964 H   0  0  0  0  0  0  0  0  0  0  0  0
    3.5838    1.1990    2.1760 H   0  0  0  0  0  0  0  0  0  0  0  0
    2.6518   -0.3636    2.1063 H   0  0  0  0  0  0  0  0  0  0  0  0
    4.5753   -1.6473    1.9498 H   0  0  0  0  0  0  0  0  0  0  0  0
    5.3938   -0.2104    2.6904 H   0  0  0  0  0  0  0  0  0  0  0  0
    6.1065   -1.2758    0.2128 H   0  0  0  0  0  0  0  0  0  0  0  0
    4.8226    0.8104   -1.1815 H   0  0  0  0  0  0  0  0  0  0  0  0
    4.2331   -0.9149   -1.1224 H   0  0  0  0  0  0  0  0  0  0  0  0
    2.3969   -0.6482    0.1274 H   0  0  0  0  0  0  0  0  0  0  0  0
  1  2  1  0
  2  3  1  0
  3  4  2  0
  4  5  1  0
  5  6  2  0
  6  7  1  0
  7  8  2  0
  8  9  1  0
  9 10  2  0
 10 11  1  0
 11 12  2  0
 12 13  1  0
  6 14  1  0
 14 15  2  0
  2 16  1  0
 16 17  1  0
 16 18  1  0
 18 19  2  0
 18 20  1  0
 20 21  1  0
 21 22  1  0
 22 23  1  0
 23 24  1  0
 23 25  1  0
 26 27  2  0
 27 28  1  0
 27 29  1  0
 29 30  1  0
 29 31  1  0
 29 32  1  0
 15  3  1  0
 25 20  1  0
 12  7  1  0
  1 33  1  0
  1 34  1  0
  1 35  1  0
  2 36  1  6
  4 37  1  0
  5 38  1  0
  8 39  1  0
  9 40  1  0
 10 41  1  0
 11 42  1  0
 14 43  1  0
 15 44  1  0
 16 45  1  6
 17 46  1  0
 17 47  1  0
 21 48  1  0
 21 49  1  0
 22 50  1  0
 22 51  1  0
 23 52  1  6
 25 53  1  0
 25 54  1  0
 28 55  1  0
M  END
$$$$
