
     RDKit          3D

 39 41  0  0  0  0  0  0  0  0999 V2000
   -2.9558   -1.8120   -2.3817 C   0  0  0  0  0  0  0  0  0  0  0  0
   -2.8697   -1.7118   -0.8604 C   0  0  0  0  0  0  0  0  0  0  0  0
   -1.9308   -0.6366   -0.4585 N   0  0  0  0  0  0  0  0  0  0  0  0
   -0.5854   -0.8895   -0.2464 C   0  0  0  0  0  0  0  0  0  0  0  0
   -0.0186   -2.3068   -0.3622 C   0  0  0  0  0  0  0  0  0  0  0  0
   -0.0951   -3.0181    0.9131 N   0  0  0  0  0  0  0  0  0  0  0  0
    0.2817    0.1705    0.1372 C   0  0  0  0  0  0  0  0  0  0  0  0
    1.7196   -0.0846    0.3976 C   0  0  0  0  0  0  0  0  0  0  0  0
    2.1755   -0.2816    1.7101 C   0  0  0  0  0  0  0  0  0  0  0  0
    3.5350   -0.4969    1.9554 C   0  0  0  0  0  0  0  0  0  0  0  0
    4.4452   -0.5069    0.8942 C   0  0  0  0  0  0  0  0  0  0  0  0
    3.9977   -0.2979   -0.4138 C   0  0  0  0  0  0  0  0  0  0  0  0
    2.6388   -0.0823   -0.6631 C   0  0  0  0  0  0  0  0  0  0  0  0
   -0.2294    1.4803    0.2632 C   0  0  0  0  0  0  0  0  0  0  0  0
    0.5955    2.5708    0.6273 C   0  0  0  0  0  0  0  0  0  0  0  0
    0.0686    3.8592    0.7393 C   0  0  0  0  0  0  0  0  0  0  0  0
    1.1092    5.1970    1.1928 Cl  0  0  0  0  0  0  0  0  0  0  0  0
   -1.2833    4.0840    0.4890 C   0  0  0  0  0  0  0  0  0  0  0  0
   -2.1124    3.0235    0.1261 C   0  0  0  0  0  0  0  0  0  0  0  0
   -1.5969    1.7152    0.0100 C   0  0  0  0  0  0  0  0  0  0  0  0
   -2.4269    0.6430   -0.3564 C   0  0  0  0  0  0  0  0  0  0  0  0
   -3.6478    0.8685   -0.5971 O   0  0  0  0  0  0  0  0  0  0  0  0
   -3.3577   -0.8673   -2.8046 H   0  0  0  0  0  0  0  0  0  0  0  0
   -3.6334   -2.6451   -2.6635 H   0  0  0  0  0  0  0  0  0  0  0  0
   -1.9536   -2.0018   -2.8186 H   0  0  0  0  0  0  0  0  0  0  0  0
   -2.5957   -2.6935   -0.4288 H   0  0  0  0  0  0  0  0  0  0  0  0
   -3.8877   -1.5224   -0.4546 H   0  0  0  0  0  0  0  0  0  0  0  0
   -0.5324   -2.8968   -1.1450 H   0  0  0  0  0  0  0  0  0  0  0  0
    1.0356   -2.2963   -0.7052 H   0  0  0  0  0  0  0  0  0  0  0  0
   -1.0719   -2.9703    1.2814 H   0  0  0  0  0  0  0  0  0  0  0  0
    0.5192   -2.5350    1.6063 H   0  0  0  0  0  0  0  0  0  0  0  0
    1.4784   -0.2674    2.5389 H   0  0  0  0  0  0  0  0  0  0  0  0
    3.8835   -0.6530    2.9681 H   0  0  0  0  0  0  0  0  0  0  0  0
    5.4975   -0.6728    1.0857 H   0  0  0  0  0  0  0  0  0  0  0  0
    4.7039   -0.3007   -1.2339 H   0  0  0  0  0  0  0  0  0  0  0  0
    2.3011    0.0839   -1.6787 H   0  0  0  0  0  0  0  0  0  0  0  0
    1.6511    2.4377    0.8246 H   0  0  0  0  0  0  0  0  0  0  0  0
   -1.6941    5.0820    0.5744 H   0  0  0  0  0  0  0  0  0  0  0  0
   -3.1584    3.2322   -0.0623 H   0  0  0  0  0  0  0  0  0  0  0  0
  1  2  1  0
  2  3  1  0
  3  4  1  0
  4  5  1  0
  5  6  1  0
  4  7  2  0
  7  8  1  0
  8  9  2  0
  9 10  1  0
 10 11  2  0
 11 12  1  0
 12 13  2  0
  7 14  1  0
 14 15  2  0
 15 16  1  0
 16 17  1  0
 16 18  2  0
 18 19  1  0
 19 20  2  0
 20 21  1  0
 21 22  2  0
 21  3  1  0
 13  8  1  0
 20 14  1  0
  1 23  1  0
  1 24  1  0
  1 25  1  0
  2 26  1  0
  2 27  1  0
  5 28  1  0
  5 29  1  0
  6 30  1  0
  6 31  1  0
  9 32  1  0
 10 33  1  0
 11 34  1  0
 12 35  1  0
 13 36  1  0
 15 37  1  0
 18 38  1  0
 19 39  1  0
M  END
$$$$
