
     RDKit          3D

 54 57  0  0  0  0  0  0  0  0999 V2000
    0.6878    0.0000    0.0000 Cl  0  0  0  0  0  0  0  0  0  0  0  0
   -1.8726    2.1151    1.9465 O   0  0  0  0  0  0  0  0  0  0  0  0
   -2.1836    1.6429    0.8186 C   0  0  0  0  0  0  0  0  0  0  0  0
   -1.3963    2.0621   -0.3987 C   0  0  2  0  0  0  0  0  0  0  0  0
   -0.2332    1.1110   -0.6599 C   0  0  0  0  0  0  0  0  0  0  0  0
    0.8471    2.0145   -1.2273 C   0  0  2  0  0  0  0  0  0  0  0  0
    2.2146    1.5427   -0.9441 N   0  0  0  0  0  0  0  0  0  0  0  0
    2.5553    0.3670   -1.7560 C   0  0  0  0  0  0  0  0  0  0  0  0
    3.9799   -0.0590   -1.4774 C   0  0  0  0  0  0  0  0  0  0  0  0
    4.9918    0.4019   -2.3353 C   0  0  0  0  0  0  0  0  0  0  0  0
    6.3196    0.0454   -2.1080 C   0  0  0  0  0  0  0  0  0  0  0  0
    6.6449   -0.7379   -1.0499 N   0  0  0  0  0  0  0  0  0  0  0  0
    5.7067   -1.1954   -0.1802 C   0  0  0  0  0  0  0  0  0  0  0  0
    6.1022   -1.9919    0.9006 C   0  0  0  0  0  0  0  0  0  0  0  0
    5.1545   -2.4601    1.8116 C   0  0  0  0  0  0  0  0  0  0  0  0
    3.8076   -2.1336    1.6500 C   0  0  0  0  0  0  0  0  0  0  0  0
    3.3971   -1.3409    0.5743 C   0  0  0  0  0  0  0  0  0  0  0  0
    4.3393   -0.8623   -0.3626 C   0  0  0  0  0  0  0  0  0  0  0  0
    0.5802    3.3535   -0.5556 C   0  0  0  0  0  0  0  0  0  0  0  0
   -0.8429    3.4108   -0.2132 N   0  0  0  0  0  0  0  0  0  0  0  0
   -3.2368    0.6677    0.7284 N   0  0  0  0  0  0  0  0  0  0  0  0
   -3.6642    0.0089   -0.5091 C   0  0  0  0  0  0  0  0  0  0  0  0
   -4.7291   -0.9130   -0.0470 C   0  0  0  0  0  0  0  0  0  0  0  0
   -5.4897   -1.7973   -0.8137 C   0  0  0  0  0  0  0  0  0  0  0  0
   -6.4554   -2.5855   -0.1668 C   0  0  0  0  0  0  0  0  0  0  0  0
   -6.6434   -2.4775    1.2247 C   0  0  0  0  0  0  0  0  0  0  0  0
   -5.8665   -1.5808    1.9761 C   0  0  0  0  0  0  0  0  0  0  0  0
   -4.9129   -0.8073    1.3123 C   0  0  0  0  0  0  0  0  0  0  0  0
   -3.9872    0.1940    1.8935 C   0  0  0  0  0  0  0  0  0  0  0  0
   -0.6878    0.0000    0.0000 H   0  0  0  0  0  0  0  0  0  0  0  0
   -2.0630    2.0617   -1.2910 H   0  0  0  0  0  0  0  0  0  0  0  0
    0.1108    0.6364    0.2870 H   0  0  0  0  0  0  0  0  0  0  0  0
   -0.5148    0.3176   -1.3857 H   0  0  0  0  0  0  0  0  0  0  0  0
    0.6934    2.1373   -2.3247 H   0  0  0  0  0  0  0  0  0  0  0  0
    2.3009    1.3007    0.0712 H   0  0  0  0  0  0  0  0  0  0  0  0
    1.8548   -0.4734   -1.5660 H   0  0  0  0  0  0  0  0  0  0  0  0
    2.4477    0.6169   -2.8353 H   0  0  0  0  0  0  0  0  0  0  0  0
    4.7546    1.0346   -3.1819 H   0  0  0  0  0  0  0  0  0  0  0  0
    7.0960    0.3953   -2.7751 H   0  0  0  0  0  0  0  0  0  0  0  0
    7.1459   -2.2467    1.0378 H   0  0  0  0  0  0  0  0  0  0  0  0
    5.4652   -3.0744    2.6468 H   0  0  0  0  0  0  0  0  0  0  0  0
    3.0774   -2.4952    2.3626 H   0  0  0  0  0  0  0  0  0  0  0  0
    2.3450   -1.1083    0.4973 H   0  0  0  0  0  0  0  0  0  0  0  0
    0.8674    4.1935   -1.2275 H   0  0  0  0  0  0  0  0  0  0  0  0
    1.1676    3.4446    0.3841 H   0  0  0  0  0  0  0  0  0  0  0  0
   -1.3210    4.0663   -0.8763 H   0  0  0  0  0  0  0  0  0  0  0  0
   -2.8251   -0.5633   -0.9576 H   0  0  0  0  0  0  0  0  0  0  0  0
   -4.0807    0.7508   -1.2229 H   0  0  0  0  0  0  0  0  0  0  0  0
   -5.3393   -1.8746   -1.8827 H   0  0  0  0  0  0  0  0  0  0  0  0
   -7.0573   -3.2785   -0.7401 H   0  0  0  0  0  0  0  0  0  0  0  0
   -7.3892   -3.0879    1.7170 H   0  0  0  0  0  0  0  0  0  0  0  0
   -6.0048   -1.4923    3.0459 H   0  0  0  0  0  0  0  0  0  0  0  0
   -3.3042   -0.2860    2.6266 H   0  0  0  0  0  0  0  0  0  0  0  0
   -4.5544    1.0297    2.3560 H   0  0  0  0  0  0  0  0  0  0  0  0
  2  3  2  0
  3  4  1  0
  4  5  1  0
  5  6  1  0
  6  7  1  0
  7  8  1  0
  8  9  1  0
  9 10  2  0
 10 11  1  0
 11 12  2  0
 12 13  1  0
 13 14  2  0
 14 15  1  0
 15 16  2  0
 16 17  1  0
 17 18  2  0
  6 19  1  0
 19 20  1  0
  3 21  1  0
 21 22  1  0
 22 23  1  0
 23 24  2  0
 24 25  1  0
 25 26  2  0
 26 27  1  0
 27 28  2  0
 28 29  1  0
 20  4  1  0
 29 21  1  0
 18  9  1  0
 28 23  1  0
 18 13  1  0
  1 30  1  0
  4 31  1  6
  5 32  1  0
  5 33  1  0
  6 34  1  6
  7 35  1  0
  8 36  1  0
  8 37  1  0
 10 38  1  0
 11 39  1  0
 14 40  1  0
 15 41  1  0
 16 42  1  0
 17 43  1  0
 19 44  1  0
 19 45  1  0
 20 46  1  0
 22 47  1  0
 22 48  1  0
 24 49  1  0
 25 50  1  0
 26 51  1  0
 27 52  1  0
 29 53  1  0
 29 54  1  0
M  END
$$$$
