
     RDKit          3D

 24 25  0  0  0  0  0  0  0  0999 V2000
   -2.7980   -2.1684    0.6262 O   0  0  0  0  0  0  0  0  0  0  0  0
   -2.0406   -1.2529    0.2031 C   0  0  0  0  0  0  0  0  0  0  0  0
   -0.6658   -1.4923   -0.0174 C   0  0  0  0  0  0  0  0  0  0  0  0
   -0.0923   -2.7786    0.2719 N   0  0  0  0  0  0  0  0  0  0  0  0
   -0.7245   -3.8246    0.0179 O   0  0  0  0  0  0  0  0  0  0  0  0
    1.0955   -2.8673    0.9605 O   0  0  0  0  0  0  0  0  0  0  0  0
    0.1371   -0.4162   -0.4846 C   0  0  0  0  0  0  0  0  0  0  0  0
    1.5243   -0.6141   -0.8075 N   0  0  0  0  0  0  0  0  0  0  0  0
    2.4594    0.4956   -0.9938 C   0  0  0  0  0  0  0  0  0  0  0  0
    2.9188    1.0521    0.3532 C   0  0  0  0  0  0  0  0  0  0  0  0
    1.8525    1.6783    1.0102 O   0  0  0  0  0  0  0  0  0  0  0  0
   -0.4280    0.8094   -0.6883 N   0  0  0  0  0  0  0  0  0  0  0  0
   -1.7465    0.9926   -0.4521 C   0  0  0  0  0  0  0  0  0  0  0  0
   -2.6046    2.4209   -0.6466 S   0  0  0  0  0  0  0  0  0  0  0  0
   -4.0298    1.6480   -0.1448 C   0  0  0  0  0  0  0  0  0  0  0  0
   -3.8084    0.3433    0.1502 N   0  0  0  0  0  0  0  0  0  0  0  0
   -2.5368   -0.0096   -0.0261 N   0  0  0  0  0  0  0  0  0  0  0  0
    1.8706   -1.5757   -1.0223 H   0  0  0  0  0  0  0  0  0  0  0  0
    1.9976    1.2963   -1.6111 H   0  0  0  0  0  0  0  0  0  0  0  0
    3.3532    0.1263   -1.5421 H   0  0  0  0  0  0  0  0  0  0  0  0
    3.3194    0.2236    0.9797 H   0  0  0  0  0  0  0  0  0  0  0  0
    3.7316    1.7916    0.1780 H   0  0  0  0  0  0  0  0  0  0  0  0
    2.2143    2.0011    1.8760 H   0  0  0  0  0  0  0  0  0  0  0  0
   -4.9990    2.1206   -0.0644 H   0  0  0  0  0  0  0  0  0  0  0  0
  1  2  2  0
  2  3  1  0
  3  4  1  0
  4  5  2  0
  4  6  1  0
  3  7  2  0
  7  8  1  0
  8  9  1  0
  9 10  1  0
 10 11  1  0
  7 12  1  0
 12 13  2  0
 13 14  1  0
 14 15  1  0
 15 16  2  0
 16 17  1  0
 17  2  1  0
 17 13  1  0
  8 18  1  0
  9 19  1  0
  9 20  1  0
 10 21  1  0
 10 22  1  0
 11 23  1  0
 15 24  1  0
M  CHG  2   4   1   6  -1
M  END
$$$$
