
     RDKit          3D

 36 36  0  0  0  0  0  0  0  0999 V2000
   -4.8021   -0.2939   -0.6412 C   0  0  0  0  0  0  0  0  0  0  0  0
   -3.8140    0.0691    0.4696 C   0  0  0  0  0  0  0  0  0  0  0  0
   -2.3676   -0.4284    0.1875 C   0  0  2  0  0  0  0  0  0  0  0  0
   -1.6867   -0.7947    1.5210 C   0  0  0  0  0  0  0  0  0  0  0  0
   -1.5249    0.6327   -0.5812 C   0  0  2  0  0  0  0  0  0  0  0  0
   -2.1735    1.0104   -1.8388 N   0  0  0  0  0  0  0  0  0  0  0  0
   -0.1216    0.1370   -0.8570 C   0  0  0  0  0  0  0  0  0  0  0  0
    0.0495   -0.8691   -1.5990 O   0  0  0  0  0  0  0  0  0  0  0  0
    1.0083    0.7963   -0.2663 N   0  0  0  0  0  0  0  0  0  0  0  0
    2.3763    0.3006   -0.4492 C   0  0  0  0  0  0  0  0  0  0  0  0
    3.4134    1.2561    0.1256 C   0  0  0  0  0  0  0  0  0  0  0  0
    4.6191    0.3848    0.4404 C   0  0  0  0  0  0  0  0  0  0  0  0
    4.0823   -1.0264    0.6751 C   0  0  0  0  0  0  0  0  0  0  0  0
    2.6033   -1.0090    0.2974 C   0  0  0  0  0  0  0  0  0  0  0  0
   -4.5651    0.2349   -1.5847 H   0  0  0  0  0  0  0  0  0  0  0  0
   -4.7973   -1.3899   -0.8216 H   0  0  0  0  0  0  0  0  0  0  0  0
   -5.8267    0.0038   -0.3331 H   0  0  0  0  0  0  0  0  0  0  0  0
   -3.8252    1.1693    0.6299 H   0  0  0  0  0  0  0  0  0  0  0  0
   -4.2061   -0.3919    1.4030 H   0  0  0  0  0  0  0  0  0  0  0  0
   -2.4134   -1.3609   -0.4192 H   0  0  0  0  0  0  0  0  0  0  0  0
   -0.6804   -1.2298    1.3479 H   0  0  0  0  0  0  0  0  0  0  0  0
   -2.2826   -1.5607    2.0620 H   0  0  0  0  0  0  0  0  0  0  0  0
   -1.5850    0.1038    2.1670 H   0  0  0  0  0  0  0  0  0  0  0  0
   -1.4643    1.5443    0.0544 H   0  0  0  0  0  0  0  0  0  0  0  0
   -1.6103    1.7646   -2.2957 H   0  0  0  0  0  0  0  0  0  0  0  0
   -2.1858    0.1893   -2.4876 H   0  0  0  0  0  0  0  0  0  0  0  0
    0.8445    1.6701    0.2834 H   0  0  0  0  0  0  0  0  0  0  0  0
    2.5835    0.1565   -1.5340 H   0  0  0  0  0  0  0  0  0  0  0  0
    3.0439    1.7147    1.0701 H   0  0  0  0  0  0  0  0  0  0  0  0
    3.6695    2.0597   -0.5985 H   0  0  0  0  0  0  0  0  0  0  0  0
    5.3137    0.3829   -0.4286 H   0  0  0  0  0  0  0  0  0  0  0  0
    5.1609    0.7643    1.3340 H   0  0  0  0  0  0  0  0  0  0  0  0
    4.2042   -1.3181    1.7413 H   0  0  0  0  0  0  0  0  0  0  0  0
    4.6337   -1.7548    0.0408 H   0  0  0  0  0  0  0  0  0  0  0  0
    2.3406   -1.8824   -0.3380 H   0  0  0  0  0  0  0  0  0  0  0  0
    1.9860   -1.0354    1.2233 H   0  0  0  0  0  0  0  0  0  0  0  0
  1  2  1  0
  2  3  1  0
  3  4  1  0
  3  5  1  0
  5  6  1  0
  5  7  1  0
  7  8  2  0
  7  9  1  0
  9 10  1  0
 10 11  1  0
 11 12  1  0
 12 13  1  0
 13 14  1  0
 14 10  1  0
  1 15  1  0
  1 16  1  0
  1 17  1  0
  2 18  1  0
  2 19  1  0
  3 20  1  6
  4 21  1  0
  4 22  1  0
  4 23  1  0
  5 24  1  1
  6 25  1  0
  6 26  1  0
  9 27  1  0
 10 28  1  0
 11 29  1  0
 11 30  1  0
 12 31  1  0
 12 32  1  0
 13 33  1  0
 13 34  1  0
 14 35  1  0
 14 36  1  0
M  END
$$$$
