
     RDKit          3D

 26 27  0  0  0  0  0  0  0  0999 V2000
   -0.5565    0.9166   -1.8459 O   0  0  0  0  0  0  0  0  0  0  0  0
   -0.4601    0.1839   -0.8230 C   0  0  0  0  0  0  0  0  0  0  0  0
    0.8704   -0.4718   -0.4982 C   0  0  2  0  0  0  0  0  0  0  0  0
    1.7160    0.3890    0.4283 C   0  0  0  0  0  0  0  0  0  0  0  0
    3.1459    0.0066    0.0939 C   0  0  0  0  0  0  0  0  0  0  0  0
    3.0588   -0.8194   -1.1869 C   0  0  0  0  0  0  0  0  0  0  0  0
    1.6866   -0.7361   -1.6868 N   0  0  0  0  0  0  0  0  0  0  0  0
   -1.5955    0.0568    0.0583 N   0  0  0  0  0  0  0  0  0  0  0  0
   -2.8028    0.8434   -0.1527 C   0  0  0  0  0  0  0  0  0  0  0  0
   -3.6494    0.7509    1.1046 C   0  0  0  0  0  0  0  0  0  0  0  0
   -3.2959   -0.8365    1.9060 S   0  0  0  0  0  0  0  0  0  0  0  0
   -1.6274   -0.8618    1.1898 C   0  0  0  0  0  0  0  0  0  0  0  0
    0.6863   -1.4500   -0.0041 H   0  0  0  0  0  0  0  0  0  0  0  0
    1.4808    0.1873    1.4959 H   0  0  0  0  0  0  0  0  0  0  0  0
    1.5613    1.4704    0.2139 H   0  0  0  0  0  0  0  0  0  0  0  0
    3.5916   -0.5981    0.9141 H   0  0  0  0  0  0  0  0  0  0  0  0
    3.7650    0.9166   -0.0658 H   0  0  0  0  0  0  0  0  0  0  0  0
    3.2991   -1.8830   -0.9688 H   0  0  0  0  0  0  0  0  0  0  0  0
    3.7820   -0.4491   -1.9480 H   0  0  0  0  0  0  0  0  0  0  0  0
    1.6550    0.0912   -2.3286 H   0  0  0  0  0  0  0  0  0  0  0  0
   -2.5456    1.9073   -0.3489 H   0  0  0  0  0  0  0  0  0  0  0  0
   -3.3601    0.4332   -1.0225 H   0  0  0  0  0  0  0  0  0  0  0  0
   -4.7300    0.8276    0.8609 H   0  0  0  0  0  0  0  0  0  0  0  0
   -3.3738    1.5676    1.8057 H   0  0  0  0  0  0  0  0  0  0  0  0
   -1.4115   -1.8966    0.8517 H   0  0  0  0  0  0  0  0  0  0  0  0
   -0.8903   -0.5459    1.9570 H   0  0  0  0  0  0  0  0  0  0  0  0
  1  2  2  0
  2  3  1  0
  3  4  1  0
  4  5  1  0
  5  6  1  0
  6  7  1  0
  2  8  1  0
  8  9  1  0
  9 10  1  0
 10 11  1  0
 11 12  1  0
  7  3  1  0
 12  8  1  0
  3 13  1  1
  4 14  1  0
  4 15  1  0
  5 16  1  0
  5 17  1  0
  6 18  1  0
  6 19  1  0
  7 20  1  0
  9 21  1  0
  9 22  1  0
 10 23  1  0
 10 24  1  0
 12 25  1  0
 12 26  1  0
M  END
$$$$
