
     RDKit          3D

 36 37  0  0  0  0  0  0  0  0999 V2000
   -0.8566    2.4071   -0.7097 N   0  0  0  0  0  0  0  0  0  0  0  0
   -0.0766    1.1717   -0.6418 C   0  0  1  0  0  0  0  0  0  0  0  0
    0.5788    1.0254    0.7459 C   0  0  0  0  0  0  0  0  0  0  0  0
    1.4986   -0.1674    0.8020 C   0  0  0  0  0  0  0  0  0  0  0  0
    1.0473   -1.2549    1.2544 O   0  0  0  0  0  0  0  0  0  0  0  0
    2.8480   -0.1113    0.2984 N   0  0  0  0  0  0  0  0  0  0  0  0
    3.6340   -1.3231    0.1182 C   0  0  0  0  0  0  0  0  0  0  0  0
    4.8625   -0.9665   -0.7002 C   0  0  0  0  0  0  0  0  0  0  0  0
    5.2690    0.7708   -0.3755 S   0  0  0  0  0  0  0  0  0  0  0  0
    3.5294    1.1401   -0.0081 C   0  0  0  0  0  0  0  0  0  0  0  0
   -0.9407   -0.0293   -0.9695 C   0  0  0  0  0  0  0  0  0  0  0  0
   -0.5254   -0.8417   -1.8402 O   0  0  0  0  0  0  0  0  0  0  0  0
   -2.1683   -0.3182   -0.2712 N   0  0  0  0  0  0  0  0  0  0  0  0
   -3.0011    0.6619    0.4091 C   0  0  0  0  0  0  0  0  0  0  0  0
   -4.2671   -0.0825    0.8152 C   0  0  0  0  0  0  0  0  0  0  0  0
   -3.9336   -1.5678    0.7025 C   0  0  2  0  0  0  0  0  0  0  0  0
   -3.5730   -2.0604    1.9464 F   0  0  0  0  0  0  0  0  0  0  0  0
   -2.7472   -1.6504   -0.2488 C   0  0  0  0  0  0  0  0  0  0  0  0
   -0.2074    3.2166   -0.5770 H   0  0  0  0  0  0  0  0  0  0  0  0
   -1.2380    2.5009   -1.6796 H   0  0  0  0  0  0  0  0  0  0  0  0
    0.7350    1.2361   -1.4026 H   0  0  0  0  0  0  0  0  0  0  0  0
    1.1453    1.9472    0.9917 H   0  0  0  0  0  0  0  0  0  0  0  0
   -0.1994    0.9219    1.5303 H   0  0  0  0  0  0  0  0  0  0  0  0
    3.0397   -2.0952   -0.4177 H   0  0  0  0  0  0  0  0  0  0  0  0
    3.9363   -1.7158    1.1132 H   0  0  0  0  0  0  0  0  0  0  0  0
    4.6398   -1.0793   -1.7829 H   0  0  0  0  0  0  0  0  0  0  0  0
    5.7197   -1.6198   -0.4331 H   0  0  0  0  0  0  0  0  0  0  0  0
    3.0613    1.6248   -0.8894 H   0  0  0  0  0  0  0  0  0  0  0  0
    3.4936    1.8216    0.8673 H   0  0  0  0  0  0  0  0  0  0  0  0
   -3.2597    1.4969   -0.2765 H   0  0  0  0  0  0  0  0  0  0  0  0
   -2.4814    1.0506    1.3088 H   0  0  0  0  0  0  0  0  0  0  0  0
   -4.5860    0.1901    1.8448 H   0  0  0  0  0  0  0  0  0  0  0  0
   -5.0881    0.1647    0.1063 H   0  0  0  0  0  0  0  0  0  0  0  0
   -4.8004   -2.1477    0.3175 H   0  0  0  0  0  0  0  0  0  0  0  0
   -2.0003   -2.3921    0.1096 H   0  0  0  0  0  0  0  0  0  0  0  0
   -3.0879   -1.9251   -1.2708 H   0  0  0  0  0  0  0  0  0  0  0  0
  1  2  1  0
  2  3  1  0
  3  4  1  0
  4  5  2  0
  4  6  1  0
  6  7  1  0
  7  8  1  0
  8  9  1  0
  9 10  1  0
  2 11  1  0
 11 12  2  0
 11 13  1  0
 13 14  1  0
 14 15  1  0
 15 16  1  0
 16 17  1  0
 16 18  1  0
 10  6  1  0
 18 13  1  0
  1 19  1  0
  1 20  1  0
  2 21  1  6
  3 22  1  0
  3 23  1  0
  7 24  1  0
  7 25  1  0
  8 26  1  0
  8 27  1  0
 10 28  1  0
 10 29  1  0
 14 30  1  0
 14 31  1  0
 15 32  1  0
 15 33  1  0
 16 34  1  6
 18 35  1  0
 18 36  1  0
M  END
$$$$
