
     RDKit          3D

 45 46  0  0  0  0  0  0  0  0999 V2000
    0.6878    0.0000    0.0000 Cl  0  0  0  0  0  0  0  0  0  0  0  0
   -1.5825    1.0418   -0.6637 N   0  0  0  0  0  0  0  0  0  0  0  0
   -1.8897   -0.2641   -0.0686 C   0  0  1  0  0  0  0  0  0  0  0  0
   -0.6128   -0.9503    0.4711 C   0  0  0  0  0  0  0  0  0  0  0  0
    0.3850   -1.2637   -0.6149 C   0  0  0  0  0  0  0  0  0  0  0  0
   -0.0249   -1.7013   -1.7253 O   0  0  0  0  0  0  0  0  0  0  0  0
    1.7991   -1.1127   -0.3888 N   0  0  0  0  0  0  0  0  0  0  0  0
    2.6740   -0.8191   -1.5388 C   0  0  0  0  0  0  0  0  0  0  0  0
    3.8233    0.1079   -1.1217 C   0  0  0  0  0  0  0  0  0  0  0  0
    4.3998   -0.3564    0.1358 N   0  0  0  0  0  0  0  0  0  0  0  0
    3.7650   -1.0903    1.0588 C   0  0  0  0  0  0  0  0  0  0  0  0
    4.5220   -1.2730    2.1570 N   0  0  0  0  0  0  0  0  0  0  0  0
    5.6591   -0.6212    1.9461 N   0  0  0  0  0  0  0  0  0  0  0  0
    5.5734   -0.0560    0.7230 C   0  0  0  0  0  0  0  0  0  0  0  0
    6.6508    0.7854    0.1104 C   0  0  0  0  0  0  0  0  0  0  0  0
    7.6785    0.9783    1.0159 F   0  0  0  0  0  0  0  0  0  0  0  0
    7.1514    0.1513   -1.0110 F   0  0  0  0  0  0  0  0  0  0  0  0
    6.1333    2.0154   -0.2508 F   0  0  0  0  0  0  0  0  0  0  0  0
    2.3926   -1.6474    0.8516 C   0  0  0  0  0  0  0  0  0  0  0  0
   -2.9197   -0.0923    1.0634 C   0  0  0  0  0  0  0  0  0  0  0  0
   -4.2196    0.4685    0.5453 C   0  0  0  0  0  0  0  0  0  0  0  0
   -5.1716   -0.3812   -0.0423 C   0  0  0  0  0  0  0  0  0  0  0  0
   -6.3653    0.1416   -0.5488 C   0  0  0  0  0  0  0  0  0  0  0  0
   -6.6144    1.5155   -0.4795 C   0  0  0  0  0  0  0  0  0  0  0  0
   -7.7729    2.0183   -0.9734 F   0  0  0  0  0  0  0  0  0  0  0  0
   -5.6671    2.3695    0.0946 C   0  0  0  0  0  0  0  0  0  0  0  0
   -5.9039    3.7033    0.1566 F   0  0  0  0  0  0  0  0  0  0  0  0
   -4.4720    1.8496    0.6024 C   0  0  0  0  0  0  0  0  0  0  0  0
   -0.6878    0.0000    0.0000 H   0  0  0  0  0  0  0  0  0  0  0  0
   -1.0194    1.6107    0.0102 H   0  0  0  0  0  0  0  0  0  0  0  0
   -1.0034    0.9018   -1.5227 H   0  0  0  0  0  0  0  0  0  0  0  0
   -2.3450   -0.9174   -0.8472 H   0  0  0  0  0  0  0  0  0  0  0  0
   -0.1477   -0.2844    1.2290 H   0  0  0  0  0  0  0  0  0  0  0  0
   -0.8830   -1.9050    0.9716 H   0  0  0  0  0  0  0  0  0  0  0  0
    2.1021   -0.3244   -2.3545 H   0  0  0  0  0  0  0  0  0  0  0  0
    3.0892   -1.7723   -1.9322 H   0  0  0  0  0  0  0  0  0  0  0  0
    4.5979    0.1199   -1.9178 H   0  0  0  0  0  0  0  0  0  0  0  0
    3.4344    1.1396   -0.9825 H   0  0  0  0  0  0  0  0  0  0  0  0
    2.4558   -2.7539    0.7811 H   0  0  0  0  0  0  0  0  0  0  0  0
    1.7765   -1.3823    1.7344 H   0  0  0  0  0  0  0  0  0  0  0  0
   -2.5048    0.5713    1.8543 H   0  0  0  0  0  0  0  0  0  0  0  0
   -3.1178   -1.0773    1.5409 H   0  0  0  0  0  0  0  0  0  0  0  0
   -4.9876   -1.4464   -0.1089 H   0  0  0  0  0  0  0  0  0  0  0  0
   -7.0958   -0.5192   -0.9976 H   0  0  0  0  0  0  0  0  0  0  0  0
   -3.7425    2.5218    1.0373 H   0  0  0  0  0  0  0  0  0  0  0  0
  2  3  1  0
  3  4  1  0
  4  5  1  0
  5  6  2  0
  5  7  1  0
  7  8  1  0
  8  9  1  0
  9 10  1  0
 10 11  1  0
 11 12  2  0
 12 13  1  0
 13 14  2  0
 14 15  1  0
 15 16  1  0
 15 17  1  0
 15 18  1  0
 11 19  1  0
  3 20  1  0
 20 21  1  0
 21 22  2  0
 22 23  1  0
 23 24  2  0
 24 25  1  0
 24 26  1  0
 26 27  1  0
 26 28  2  0
 19  7  1  0
 28 21  1  0
 14 10  1  0
  1 29  1  0
  2 30  1  0
  2 31  1  0
  3 32  1  6
  4 33  1  0
  4 34  1  0
  8 35  1  0
  8 36  1  0
  9 37  1  0
  9 38  1  0
 19 39  1  0
 19 40  1  0
 20 41  1  0
 20 42  1  0
 22 43  1  0
 23 44  1  0
 28 45  1  0
M  END
$$$$
