
     RDKit          3D

 54 55  0  0  0  0  0  0  0  0999 V2000
   -1.6070   -1.8589   -2.4542 C   0  0  0  0  0  0  0  0  0  0  0  0
   -1.3090   -0.7752   -1.4036 C   0  0  1  0  0  0  0  0  0  0  0  0
    0.1731   -0.6874   -1.0589 C   0  0  0  0  0  0  0  0  0  0  0  0
    1.1730   -0.7184   -2.0501 C   0  0  0  0  0  0  0  0  0  0  0  0
    2.5225   -0.6140   -1.7024 C   0  0  0  0  0  0  0  0  0  0  0  0
    2.9047   -0.4836   -0.3585 C   0  0  0  0  0  0  0  0  0  0  0  0
    4.3367   -0.3540   -0.0037 C   0  0  0  0  0  0  0  0  0  0  0  0
    5.1106    0.2521   -0.7937 O   0  0  0  0  0  0  0  0  0  0  0  0
    4.8687   -0.9009    1.2150 N   0  0  0  0  0  0  0  0  0  0  0  0
    4.3803   -1.9437    1.9179 C   0  0  0  0  0  0  0  0  0  0  0  0
    5.2226   -2.1875    2.9858 C   0  0  0  0  0  0  0  0  0  0  0  0
    6.2298   -1.2484    2.8683 C   0  0  0  0  0  0  0  0  0  0  0  0
    5.9912   -0.4902    1.7835 N   0  0  0  0  0  0  0  0  0  0  0  0
    1.9098   -0.4252    0.6299 C   0  0  0  0  0  0  0  0  0  0  0  0
    0.5604   -0.5294    0.2837 C   0  0  0  0  0  0  0  0  0  0  0  0
   -1.9463    0.6002   -1.7705 C   0  0  2  0  0  0  0  0  0  0  0  0
   -1.3176    1.2437   -2.9308 N   0  0  0  0  0  0  0  0  0  0  0  0
   -1.9236    1.5394   -0.5822 C   0  0  0  0  0  0  0  0  0  0  0  0
   -0.9221    2.2876   -0.4097 O   0  0  0  0  0  0  0  0  0  0  0  0
   -2.9865    1.5536    0.3899 N   0  0  0  0  0  0  0  0  0  0  0  0
   -4.2101    0.7734    0.2954 C   0  0  0  0  0  0  0  0  0  0  0  0
   -4.9378    0.9895    1.6153 C   0  0  0  0  0  0  0  0  0  0  0  0
   -4.3107    2.2346    2.2384 C   0  0  2  0  0  0  0  0  0  0  0  0
   -5.0884    3.3439    1.9474 F   0  0  0  0  0  0  0  0  0  0  0  0
   -2.9409    2.3778    1.5856 C   0  0  0  0  0  0  0  0  0  0  0  0
    1.4597   -1.1417    0.1640 O   0  0  0  0  0  0  0  0  0  0  0  0
    0.8629   -0.0409    0.0311 C   0  0  0  0  0  0  0  0  0  0  0  0
    1.5966    1.1389    0.0121 O   0  0  0  0  0  0  0  0  0  0  0  0
   -0.6293    0.0010   -0.0370 C   0  0  0  0  0  0  0  0  0  0  0  0
   -1.0410    1.1592   -0.6705 F   0  0  0  0  0  0  0  0  0  0  0  0
   -1.1478   -0.0259    1.2438 F   0  0  0  0  0  0  0  0  0  0  0  0
   -1.1012   -1.0906   -0.7435 F   0  0  0  0  0  0  0  0  0  0  0  0
   -1.1929   -1.6049   -3.4499 H   0  0  0  0  0  0  0  0  0  0  0  0
   -2.7049   -1.9918   -2.5597 H   0  0  0  0  0  0  0  0  0  0  0  0
   -1.1743   -2.8295   -2.1296 H   0  0  0  0  0  0  0  0  0  0  0  0
   -1.8360   -1.1336   -0.4908 H   0  0  0  0  0  0  0  0  0  0  0  0
    0.9166   -0.8105   -3.0963 H   0  0  0  0  0  0  0  0  0  0  0  0
    3.2705   -0.6428   -2.4854 H   0  0  0  0  0  0  0  0  0  0  0  0
    3.4942   -2.5107    1.6638 H   0  0  0  0  0  0  0  0  0  0  0  0
    5.1247   -2.9575    3.7390 H   0  0  0  0  0  0  0  0  0  0  0  0
    7.0830   -1.1345    3.5237 H   0  0  0  0  0  0  0  0  0  0  0  0
    6.5895    0.2938    1.4389 H   0  0  0  0  0  0  0  0  0  0  0  0
    2.1727   -0.2773    1.6696 H   0  0  0  0  0  0  0  0  0  0  0  0
   -0.1861   -0.4747    1.0668 H   0  0  0  0  0  0  0  0  0  0  0  0
   -3.0090    0.4220   -2.0408 H   0  0  0  0  0  0  0  0  0  0  0  0
   -0.2978    1.3941   -2.7641 H   0  0  0  0  0  0  0  0  0  0  0  0
   -1.4269    0.6378   -3.7744 H   0  0  0  0  0  0  0  0  0  0  0  0
   -3.9827   -0.3046    0.1554 H   0  0  0  0  0  0  0  0  0  0  0  0
   -4.8259    1.1468   -0.5512 H   0  0  0  0  0  0  0  0  0  0  0  0
   -4.7629    0.1167    2.2826 H   0  0  0  0  0  0  0  0  0  0  0  0
   -6.0318    1.1124    1.4605 H   0  0  0  0  0  0  0  0  0  0  0  0
   -4.2221    2.1309    3.3417 H   0  0  0  0  0  0  0  0  0  0  0  0
   -2.7363    3.4381    1.3207 H   0  0  0  0  0  0  0  0  0  0  0  0
   -2.1451    2.0010    2.2643 H   0  0  0  0  0  0  0  0  0  0  0  0
  1  2  1  0
  2  3  1  0
  3  4  2  0
  4  5  1  0
  5  6  2  0
  6  7  1  0
  7  8  2  0
  7  9  1  0
  9 10  2  0
 10 11  1  0
 11 12  2  0
 12 13  1  0
  6 14  1  0
 14 15  2  0
  2 16  1  0
 16 17  1  0
 16 18  1  0
 18 19  2  0
 18 20  1  0
 20 21  1  0
 21 22  1  0
 22 23  1  0
 23 24  1  0
 23 25  1  0
 26 27  2  0
 27 28  1  0
 27 29  1  0
 29 30  1  0
 29 31  1  0
 29 32  1  0
 15  3  1  0
 25 20  1  0
 13  9  1  0
  1 33  1  0
  1 34  1  0
  1 35  1  0
  2 36  1  1
  4 37  1  0
  5 38  1  0
 10 39  1  0
 11 40  1  0
 12 41  1  0
 13 42  1  0
 14 43  1  0
 15 44  1  0
 16 45  1  6
 17 46  1  0
 17 47  1  0
 21 48  1  0
 21 49  1  0
 22 50  1  0
 22 51  1  0
 23 52  1  1
 25 53  1  0
 25 54  1  0
M  CHG  2   9   1  28  -1
M  END
$$$$
