
     RDKit          3D

 52 55  0  0  0  0  0  0  0  0999 V2000
   -3.3448   -2.2265   -1.5691 N   0  0  0  0  0  0  0  0  0  0  0  0
   -2.6450   -1.6557   -0.4145 C   0  0  1  0  0  0  0  0  0  0  0  0
   -1.3409   -0.9485   -0.8569 C   0  0  0  0  0  0  0  0  0  0  0  0
   -0.4183   -0.6853    0.3044 C   0  0  0  0  0  0  0  0  0  0  0  0
   -0.5402    0.3952    0.9423 O   0  0  0  0  0  0  0  0  0  0  0  0
    0.5826   -1.6427    0.7093 N   0  0  0  0  0  0  0  0  0  0  0  0
    0.7417   -2.9600    0.1126 C   0  0  0  0  0  0  0  0  0  0  0  0
    1.6712   -3.7268    1.0428 C   0  0  0  0  0  0  0  0  0  0  0  0
    2.3746   -2.6745    1.8940 C   0  0  0  0  0  0  0  0  0  0  0  0
    1.4874   -1.4287    1.8326 C   0  0  1  0  0  0  0  0  0  0  0  0
    2.3096   -0.1863    1.6394 C   0  0  0  0  0  0  0  0  0  0  0  0
    2.8669    0.1782    0.4679 N   0  0  0  0  0  0  0  0  0  0  0  0
    3.4836    1.3250    0.8191 C   0  0  0  0  0  0  0  0  0  0  0  0
    4.3051    2.1462   -0.1271 C   0  0  0  0  0  0  0  0  0  0  0  0
    5.8025    1.8230   -0.2566 C   0  0  0  0  0  0  0  0  0  0  0  0
    6.4087    1.9675    0.9777 F   0  0  0  0  0  0  0  0  0  0  0  0
    5.9517    0.5143   -0.6776 F   0  0  0  0  0  0  0  0  0  0  0  0
    6.4390    2.6551   -1.1628 F   0  0  0  0  0  0  0  0  0  0  0  0
    3.8839    3.6045   -0.2626 C   0  0  0  0  0  0  0  0  0  0  0  0
    3.5772    2.6142   -1.3818 C   0  0  0  0  0  0  0  0  0  0  0  0
    3.3273    1.6228    2.1236 N   0  0  0  0  0  0  0  0  0  0  0  0
    2.5918    0.6634    2.5956 O   0  0  0  0  0  0  0  0  0  0  0  0
   -3.5983   -0.7480    0.3995 C   0  0  0  0  0  0  0  0  0  0  0  0
   -4.1862    0.3969   -0.3963 C   0  0  0  0  0  0  0  0  0  0  0  0
   -3.5601    1.6558   -0.3906 C   0  0  0  0  0  0  0  0  0  0  0  0
   -4.0916    2.7152   -1.1323 C   0  0  0  0  0  0  0  0  0  0  0  0
   -3.4753    3.9230   -1.1219 F   0  0  0  0  0  0  0  0  0  0  0  0
   -5.2567    2.5299   -1.8816 C   0  0  0  0  0  0  0  0  0  0  0  0
   -5.7734    3.5566   -2.6010 F   0  0  0  0  0  0  0  0  0  0  0  0
   -5.8930    1.2861   -1.8864 C   0  0  0  0  0  0  0  0  0  0  0  0
   -5.3657    0.2225   -1.1468 C   0  0  0  0  0  0  0  0  0  0  0  0
   -6.0079   -0.9732   -1.1602 F   0  0  0  0  0  0  0  0  0  0  0  0
   -2.7759   -3.0207   -1.9436 H   0  0  0  0  0  0  0  0  0  0  0  0
   -3.4052   -1.5109   -2.3301 H   0  0  0  0  0  0  0  0  0  0  0  0
   -2.3684   -2.4989    0.2572 H   0  0  0  0  0  0  0  0  0  0  0  0
   -1.5721    0.0061   -1.3742 H   0  0  0  0  0  0  0  0  0  0  0  0
   -0.8121   -1.5764   -1.6043 H   0  0  0  0  0  0  0  0  0  0  0  0
   -0.2342   -3.4836    0.0360 H   0  0  0  0  0  0  0  0  0  0  0  0
    1.1982   -2.8582   -0.8956 H   0  0  0  0  0  0  0  0  0  0  0  0
    1.0718   -4.3937    1.7013 H   0  0  0  0  0  0  0  0  0  0  0  0
    2.4003   -4.3405    0.4704 H   0  0  0  0  0  0  0  0  0  0  0  0
    3.3824   -2.4803    1.4618 H   0  0  0  0  0  0  0  0  0  0  0  0
    2.4991   -3.0262    2.9413 H   0  0  0  0  0  0  0  0  0  0  0  0
    0.8913   -1.3424    2.7678 H   0  0  0  0  0  0  0  0  0  0  0  0
    4.6854    4.3296   -0.5176 H   0  0  0  0  0  0  0  0  0  0  0  0
    2.9832    3.9087    0.3133 H   0  0  0  0  0  0  0  0  0  0  0  0
    2.4999    2.3490   -1.4502 H   0  0  0  0  0  0  0  0  0  0  0  0
    4.1996    2.7625   -2.2894 H   0  0  0  0  0  0  0  0  0  0  0  0
   -3.0673   -0.3533    1.2921 H   0  0  0  0  0  0  0  0  0  0  0  0
   -4.4245   -1.3739    0.8017 H   0  0  0  0  0  0  0  0  0  0  0  0
   -2.6607    1.8181    0.1883 H   0  0  0  0  0  0  0  0  0  0  0  0
   -6.7982    1.1458   -2.4633 H   0  0  0  0  0  0  0  0  0  0  0  0
  1  2  1  0
  2  3  1  0
  3  4  1  0
  4  5  2  0
  4  6  1  0
  6  7  1  0
  7  8  1  0
  8  9  1  0
  9 10  1  0
 10 11  1  0
 11 12  2  0
 12 13  1  0
 13 14  1  0
 14 15  1  0
 15 16  1  0
 15 17  1  0
 15 18  1  0
 14 19  1  0
 19 20  1  0
 13 21  2  0
 21 22  1  0
  2 23  1  0
 23 24  1  0
 24 25  2  0
 25 26  1  0
 26 27  1  0
 26 28  2  0
 28 29  1  0
 28 30  1  0
 30 31  2  0
 31 32  1  0
 10  6  1  0
 22 11  1  0
 31 24  1  0
 20 14  1  0
  1 33  1  0
  1 34  1  0
  2 35  1  1
  3 36  1  0
  3 37  1  0
  7 38  1  0
  7 39  1  0
  8 40  1  0
  8 41  1  0
  9 42  1  0
  9 43  1  0
 10 44  1  1
 19 45  1  0
 19 46  1  0
 20 47  1  0
 20 48  1  0
 23 49  1  0
 23 50  1  0
 25 51  1  0
 30 52  1  0
M  END
$$$$
