
     RDKit          3D

 46 49  0  0  0  0  0  0  0  0999 V2000
    6.7982    0.4024    0.1727 C   0  0  0  0  0  0  0  0  0  0  0  0
    5.3183    0.6447    0.2122 C   0  0  0  0  0  0  0  0  0  0  0  0
    4.7809    1.8154   -0.3379 C   0  0  0  0  0  0  0  0  0  0  0  0
    3.4069    2.0539   -0.2796 C   0  0  0  0  0  0  0  0  0  0  0  0
    2.5484    1.1300    0.3301 C   0  0  0  0  0  0  0  0  0  0  0  0
    1.1397    1.4044    0.3440 N   0  0  0  0  0  0  0  0  0  0  0  0
    0.1413    0.4906   -0.1411 C   0  0  0  0  0  0  0  0  0  0  0  0
   -1.1720    0.5540    0.3529 C   0  0  0  0  0  0  0  0  0  0  0  0
   -2.1406   -0.3565   -0.1355 C   0  0  0  0  0  0  0  0  0  0  0  0
   -3.4978   -0.3196    0.3440 N   0  0  0  0  0  0  0  0  0  0  0  0
   -3.8030   -0.1772    1.7733 C   0  0  0  0  0  0  0  0  0  0  0  0
   -4.9681    0.8111    1.9869 C   0  0  0  0  0  0  0  0  0  0  0  0
   -5.9033    0.8922    0.8464 N   0  0  0  0  0  0  0  0  0  0  0  0
   -5.9541   -0.3522    0.0686 C   0  0  0  0  0  0  0  0  0  0  0  0
   -4.5924   -0.6321   -0.5823 C   0  0  0  0  0  0  0  0  0  0  0  0
   -1.7950   -1.2524   -1.1085 N   0  0  0  0  0  0  0  0  0  0  0  0
   -0.5223   -1.2713   -1.5693 C   0  0  0  0  0  0  0  0  0  0  0  0
    0.0078   -2.0691   -2.5526 C   0  0  0  0  0  0  0  0  0  0  0  0
    1.3251   -1.6288   -2.6379 C   0  0  0  0  0  0  0  0  0  0  0  0
    1.5457   -0.6276   -1.7526 N   0  0  0  0  0  0  0  0  0  0  0  0
    0.4090   -0.4323   -1.1057 N   0  0  0  0  0  0  0  0  0  0  0  0
    3.0897   -0.0220    0.9503 C   0  0  0  0  0  0  0  0  0  0  0  0
    2.2208   -1.0049    1.6886 C   0  0  0  0  0  0  0  0  0  0  0  0
    4.4721   -0.2613    0.8677 C   0  0  0  0  0  0  0  0  0  0  0  0
    7.2485    0.8689   -0.7294 H   0  0  0  0  0  0  0  0  0  0  0  0
    7.2680    0.8387    1.0788 H   0  0  0  0  0  0  0  0  0  0  0  0
    7.0156   -0.6865    0.1399 H   0  0  0  0  0  0  0  0  0  0  0  0
    5.4248    2.5411   -0.8193 H   0  0  0  0  0  0  0  0  0  0  0  0
    3.0043    2.9538   -0.7275 H   0  0  0  0  0  0  0  0  0  0  0  0
    0.8296    2.3444    0.6796 H   0  0  0  0  0  0  0  0  0  0  0  0
   -1.4331    1.3044    1.0874 H   0  0  0  0  0  0  0  0  0  0  0  0
   -2.9205    0.1528    2.3594 H   0  0  0  0  0  0  0  0  0  0  0  0
   -4.0940   -1.1741    2.1704 H   0  0  0  0  0  0  0  0  0  0  0  0
   -5.5342    0.5122    2.8949 H   0  0  0  0  0  0  0  0  0  0  0  0
   -4.5493    1.8225    2.1872 H   0  0  0  0  0  0  0  0  0  0  0  0
   -5.5963    1.6672    0.2116 H   0  0  0  0  0  0  0  0  0  0  0  0
   -6.2438   -1.1985    0.7303 H   0  0  0  0  0  0  0  0  0  0  0  0
   -6.7315   -0.2639   -0.7205 H   0  0  0  0  0  0  0  0  0  0  0  0
   -4.5368   -1.6982   -0.8912 H   0  0  0  0  0  0  0  0  0  0  0  0
   -4.4937    0.0053   -1.4882 H   0  0  0  0  0  0  0  0  0  0  0  0
   -0.4816   -2.8413   -3.1308 H   0  0  0  0  0  0  0  0  0  0  0  0
    2.0760   -2.0133   -3.3146 H   0  0  0  0  0  0  0  0  0  0  0  0
    1.4048   -0.4799    2.2281 H   0  0  0  0  0  0  0  0  0  0  0  0
    1.7847   -1.7319    0.9729 H   0  0  0  0  0  0  0  0  0  0  0  0
    2.8098   -1.5653    2.4454 H   0  0  0  0  0  0  0  0  0  0  0  0
    4.8933   -1.1496    1.3241 H   0  0  0  0  0  0  0  0  0  0  0  0
  1  2  1  0
  2  3  2  0
  3  4  1  0
  4  5  2  0
  5  6  1  0
  6  7  1  0
  7  8  2  0
  8  9  1  0
  9 10  1  0
 10 11  1  0
 11 12  1  0
 12 13  1  0
 13 14  1  0
 14 15  1  0
  9 16  2  0
 16 17  1  0
 17 18  2  0
 18 19  1  0
 19 20  2  0
 20 21  1  0
  5 22  1  0
 22 23  1  0
 22 24  2  0
 24  2  1  0
 21  7  1  0
 15 10  1  0
 21 17  1  0
  1 25  1  0
  1 26  1  0
  1 27  1  0
  3 28  1  0
  4 29  1  0
  6 30  1  0
  8 31  1  0
 11 32  1  0
 11 33  1  0
 12 34  1  0
 12 35  1  0
 13 36  1  0
 14 37  1  0
 14 38  1  0
 15 39  1  0
 15 40  1  0
 18 41  1  0
 19 42  1  0
 23 43  1  0
 23 44  1  0
 23 45  1  0
 24 46  1  0
M  END
$$$$
