
     RDKit          3D

 56 58  0  0  0  0  0  0  0  0999 V2000
   -4.6694   -0.7593   -0.4208 C   0  0  0  0  0  0  0  0  0  0  0  0
   -3.3296   -1.3554    0.0640 C   0  0  0  0  0  0  0  0  0  0  0  0
   -2.8740   -2.4018   -0.9712 C   0  0  0  0  0  0  0  0  0  0  0  0
   -3.5289   -2.0673    1.4224 C   0  0  0  0  0  0  0  0  0  0  0  0
   -2.2667   -0.3226    0.1444 N   0  0  0  0  0  0  0  0  0  0  0  0
   -2.5836    0.8906    0.9185 C   0  0  0  0  0  0  0  0  0  0  0  0
   -3.1298    1.9745    0.0264 C   0  0  0  0  0  0  0  0  0  0  0  0
   -4.2092    2.5345    0.3606 O   0  0  0  0  0  0  0  0  0  0  0  0
   -2.4533    2.4070   -1.1742 N   0  0  0  0  0  0  0  0  0  0  0  0
   -3.0872    3.3078   -2.1240 C   0  0  0  0  0  0  0  0  0  0  0  0
   -2.2337    3.2494   -3.3837 C   0  0  1  0  0  0  0  0  0  0  0  0
   -2.0987    4.5047   -3.9527 F   0  0  0  0  0  0  0  0  0  0  0  0
   -0.8825    2.6965   -2.9428 C   0  0  0  0  0  0  0  0  0  0  0  0
   -1.1606    1.9217   -1.6517 C   0  0  1  0  0  0  0  0  0  0  0  0
   -0.0695    2.1556   -0.6357 C   0  0  0  0  0  0  0  0  0  0  0  0
   -0.0103    3.2572   -0.0254 O   0  0  0  0  0  0  0  0  0  0  0  0
    0.9456    1.1293   -0.3606 C   0  0  0  0  0  0  0  0  0  0  0  0
    1.0246   -0.0576   -0.9930 N   0  0  0  0  0  0  0  0  0  0  0  0
    2.0551   -0.6948   -0.4602 N   0  0  0  0  0  0  0  0  0  0  0  0
    2.5641    0.1287    0.4772 C   0  0  0  0  0  0  0  0  0  0  0  0
    3.7560   -0.1918    1.3350 C   0  0  0  0  0  0  0  0  0  0  0  0
    5.0406   -0.2221    0.4717 C   0  0  0  0  0  0  0  0  0  0  0  0
    6.1398   -1.0516    1.1423 C   0  0  0  0  0  0  0  0  0  0  0  0
    5.7134   -2.5234    1.3208 C   0  0  0  0  0  0  0  0  0  0  0  0
    4.1891   -2.7099    1.4651 C   0  0  0  0  0  0  0  0  0  0  0  0
    3.5312   -1.5000    2.1389 C   0  0  0  0  0  0  0  0  0  0  0  0
    1.8893    1.2512    0.5415 O   0  0  0  0  0  0  0  0  0  0  0  0
   -5.1127   -0.0884    0.3440 H   0  0  0  0  0  0  0  0  0  0  0  0
   -4.5202   -0.1839   -1.3598 H   0  0  0  0  0  0  0  0  0  0  0  0
   -5.4086   -1.5657   -0.6181 H   0  0  0  0  0  0  0  0  0  0  0  0
   -3.6343   -3.2038   -1.0923 H   0  0  0  0  0  0  0  0  0  0  0  0
   -2.7098   -1.9200   -1.9595 H   0  0  0  0  0  0  0  0  0  0  0  0
   -1.9184   -2.8733   -0.6550 H   0  0  0  0  0  0  0  0  0  0  0  0
   -3.9601   -1.3877    2.1848 H   0  0  0  0  0  0  0  0  0  0  0  0
   -2.5616   -2.4570    1.8058 H   0  0  0  0  0  0  0  0  0  0  0  0
   -4.2284   -2.9241    1.3123 H   0  0  0  0  0  0  0  0  0  0  0  0
   -1.4035   -0.7545    0.5526 H   0  0  0  0  0  0  0  0  0  0  0  0
   -1.6624    1.2782    1.4036 H   0  0  0  0  0  0  0  0  0  0  0  0
   -3.2930    0.6815    1.7448 H   0  0  0  0  0  0  0  0  0  0  0  0
   -3.1054    4.3359   -1.7014 H   0  0  0  0  0  0  0  0  0  0  0  0
   -4.1239    2.9735   -2.3477 H   0  0  0  0  0  0  0  0  0  0  0  0
   -2.6975    2.5561   -4.1197 H   0  0  0  0  0  0  0  0  0  0  0  0
   -0.4471    2.0348   -3.7231 H   0  0  0  0  0  0  0  0  0  0  0  0
   -0.1829    3.5443   -2.7642 H   0  0  0  0  0  0  0  0  0  0  0  0
   -1.2530    0.8425   -1.8992 H   0  0  0  0  0  0  0  0  0  0  0  0
    3.8637    0.6334    2.0742 H   0  0  0  0  0  0  0  0  0  0  0  0
    5.4053    0.8162    0.3130 H   0  0  0  0  0  0  0  0  0  0  0  0
    4.8347   -0.6609   -0.5305 H   0  0  0  0  0  0  0  0  0  0  0  0
    6.3704   -0.6082    2.1363 H   0  0  0  0  0  0  0  0  0  0  0  0
    7.0672   -1.0051    0.5314 H   0  0  0  0  0  0  0  0  0  0  0  0
    6.2213   -2.9336    2.2207 H   0  0  0  0  0  0  0  0  0  0  0  0
    6.0611   -3.1164    0.4470 H   0  0  0  0  0  0  0  0  0  0  0  0
    3.9828   -3.6255    2.0605 H   0  0  0  0  0  0  0  0  0  0  0  0
    3.7359   -2.8557    0.4601 H   0  0  0  0  0  0  0  0  0  0  0  0
    3.9722   -1.3842    3.1539 H   0  0  0  0  0  0  0  0  0  0  0  0
    2.4463   -1.6993    2.2843 H   0  0  0  0  0  0  0  0  0  0  0  0
  1  2  1  0
  2  3  1  0
  2  4  1  0
  2  5  1  0
  5  6  1  0
  6  7  1  0
  7  8  2  0
  7  9  1  0
  9 10  1  0
 10 11  1  0
 11 12  1  0
 11 13  1  0
 13 14  1  0
 14 15  1  0
 15 16  2  0
 15 17  1  0
 17 18  2  0
 18 19  1  0
 19 20  2  0
 20 21  1  0
 21 22  1  0
 22 23  1  0
 23 24  1  0
 24 25  1  0
 25 26  1  0
 20 27  1  0
 14  9  1  0
 27 17  1  0
 26 21  1  0
  1 28  1  0
  1 29  1  0
  1 30  1  0
  3 31  1  0
  3 32  1  0
  3 33  1  0
  4 34  1  0
  4 35  1  0
  4 36  1  0
  5 37  1  0
  6 38  1  0
  6 39  1  0
 10 40  1  0
 10 41  1  0
 11 42  1  6
 13 43  1  0
 13 44  1  0
 14 45  1  6
 21 46  1  0
 22 47  1  0
 22 48  1  0
 23 49  1  0
 23 50  1  0
 24 51  1  0
 24 52  1  0
 25 53  1  0
 25 54  1  0
 26 55  1  0
 26 56  1  0
M  END
$$$$
