
     RDKit          3D

 46 49  0  0  0  0  0  0  0  0999 V2000
    7.5113   -1.1304    2.5394 N   0  0  0  0  0  0  0  0  0  0  0  0
    6.9523   -0.6671    1.6382 C   0  0  0  0  0  0  0  0  0  0  0  0
    6.2566   -0.0906    0.5172 C   0  0  0  0  0  0  0  0  0  0  0  0
    6.9769    0.3749   -0.5871 C   0  0  0  0  0  0  0  0  0  0  0  0
    6.3035    0.9340   -1.6741 C   0  0  0  0  0  0  0  0  0  0  0  0
    7.0043    1.3850   -2.7436 F   0  0  0  0  0  0  0  0  0  0  0  0
    4.9090    1.0303   -1.6633 C   0  0  0  0  0  0  0  0  0  0  0  0
    4.1641    0.5664   -0.5596 C   0  0  0  0  0  0  0  0  0  0  0  0
    2.7194    0.6650   -0.5473 N   0  0  0  0  0  0  0  0  0  0  0  0
    1.9363    1.2347   -1.6367 C   0  0  0  0  0  0  0  0  0  0  0  0
    0.4767    1.1359   -1.2203 C   0  0  2  0  0  0  0  0  0  0  0  0
    0.4459    0.4995    0.1603 C   0  0  2  0  0  0  0  0  0  0  0  0
    1.8849    0.2146    0.5594 C   0  0  0  0  0  0  0  0  0  0  0  0
   -0.0716   -0.2731   -1.0449 C   0  0  1  0  0  0  0  0  0  0  0  0
   -1.5297   -0.3175   -1.1202 N   0  0  0  0  0  0  0  0  0  0  0  0
   -2.0160   -1.5189   -0.4383 C   0  0  0  0  0  0  0  0  0  0  0  0
   -3.5159   -1.4977   -0.3849 C   0  0  0  0  0  0  0  0  0  0  0  0
   -4.1635   -2.2683   -1.1444 O   0  0  0  0  0  0  0  0  0  0  0  0
   -4.2214   -0.5944    0.4881 N   0  0  0  0  0  0  0  0  0  0  0  0
   -3.5687    0.2929    1.4390 C   0  0  0  0  0  0  0  0  0  0  0  0
   -4.6906    1.0826    2.1042 C   0  0  1  0  0  0  0  0  0  0  0  0
   -4.7819    2.3419    1.5333 F   0  0  0  0  0  0  0  0  0  0  0  0
   -5.9698    0.2970    1.8217 C   0  0  0  0  0  0  0  0  0  0  0  0
   -5.6732   -0.5439    0.5799 C   0  0  1  0  0  0  0  0  0  0  0  0
   -6.2306    0.0812   -0.6309 C   0  0  0  0  0  0  0  0  0  0  0  0
   -6.6680    0.5725   -1.5830 N   0  0  0  0  0  0  0  0  0  0  0  0
    4.8587    0.0041    0.5320 C   0  0  0  0  0  0  0  0  0  0  0  0
    8.0581    0.3053   -0.6064 H   0  0  0  0  0  0  0  0  0  0  0  0
    4.4192    1.4693   -2.5216 H   0  0  0  0  0  0  0  0  0  0  0  0
    2.2086    2.3018   -1.7810 H   0  0  0  0  0  0  0  0  0  0  0  0
    2.1034    0.6646   -2.5758 H   0  0  0  0  0  0  0  0  0  0  0  0
   -0.2279    1.9871   -1.3403 H   0  0  0  0  0  0  0  0  0  0  0  0
   -0.2779    0.9676    0.8615 H   0  0  0  0  0  0  0  0  0  0  0  0
    2.0227   -0.8744    0.7331 H   0  0  0  0  0  0  0  0  0  0  0  0
    2.1340    0.7858    1.4788 H   0  0  0  0  0  0  0  0  0  0  0  0
    0.5264   -1.1161   -1.4591 H   0  0  0  0  0  0  0  0  0  0  0  0
   -1.7820   -0.3947   -2.1333 H   0  0  0  0  0  0  0  0  0  0  0  0
   -1.6207   -1.5645    0.6003 H   0  0  0  0  0  0  0  0  0  0  0  0
   -1.6711   -2.4324   -0.9749 H   0  0  0  0  0  0  0  0  0  0  0  0
   -3.0221   -0.3089    2.1970 H   0  0  0  0  0  0  0  0  0  0  0  0
   -2.8633    0.9742    0.9171 H   0  0  0  0  0  0  0  0  0  0  0  0
   -4.5165    1.1894    3.1969 H   0  0  0  0  0  0  0  0  0  0  0  0
   -6.8483    0.9695    1.6986 H   0  0  0  0  0  0  0  0  0  0  0  0
   -6.1709   -0.3824    2.6794 H   0  0  0  0  0  0  0  0  0  0  0  0
   -6.0920   -1.5670    0.6987 H   0  0  0  0  0  0  0  0  0  0  0  0
    4.3211   -0.3621    1.3970 H   0  0  0  0  0  0  0  0  0  0  0  0
  1  2  3  0
  2  3  1  0
  3  4  2  0
  4  5  1  0
  5  6  1  0
  5  7  2  0
  7  8  1  0
  8  9  1  0
  9 10  1  0
 10 11  1  0
 11 12  1  0
 12 13  1  0
 12 14  1  0
 14 15  1  0
 15 16  1  0
 16 17  1  0
 17 18  2  0
 17 19  1  0
 19 20  1  0
 20 21  1  0
 21 22  1  0
 21 23  1  0
 23 24  1  0
 24 25  1  0
 25 26  3  0
  8 27  2  0
 27  3  1  0
 13  9  1  0
 24 19  1  0
 14 11  1  0
  4 28  1  0
  7 29  1  0
 10 30  1  0
 10 31  1  0
 11 32  1  1
 12 33  1  1
 13 34  1  0
 13 35  1  0
 14 36  1  6
 15 37  1  0
 16 38  1  0
 16 39  1  0
 20 40  1  0
 20 41  1  0
 21 42  1  1
 23 43  1  0
 23 44  1  0
 24 45  1  1
 27 46  1  0
M  END
$$$$
