
     RDKit          3D

 49 52  0  0  0  0  0  0  0  0999 V2000
   -3.1831    3.9405    1.0691 C   0  0  0  0  0  0  0  0  0  0  0  0
   -2.2993    2.9262    0.5032 N   0  0  0  0  0  0  0  0  0  0  0  0
   -2.5880    1.9989   -0.4388 C   0  0  0  0  0  0  0  0  0  0  0  0
   -3.7424    1.8412   -0.9218 O   0  0  0  0  0  0  0  0  0  0  0  0
   -1.5171    1.2378   -0.7940 N   0  0  0  0  0  0  0  0  0  0  0  0
   -1.5918    0.0227   -1.6154 C   0  0  0  0  0  0  0  0  0  0  0  0
   -2.3002   -1.0787   -0.8560 C   0  0  0  0  0  0  0  0  0  0  0  0
   -1.7034   -1.5726    0.3171 C   0  0  0  0  0  0  0  0  0  0  0  0
   -2.3157   -2.5859    1.0567 C   0  0  0  0  0  0  0  0  0  0  0  0
   -3.5345   -3.1186    0.6372 C   0  0  0  0  0  0  0  0  0  0  0  0
   -4.1462   -2.6372   -0.5219 C   0  0  0  0  0  0  0  0  0  0  0  0
   -3.5414   -1.6195   -1.2740 C   0  0  0  0  0  0  0  0  0  0  0  0
   -4.2177   -1.1512   -2.4598 C   0  0  0  0  0  0  0  0  0  0  0  0
   -4.7608   -0.7757   -3.4102 N   0  0  0  0  0  0  0  0  0  0  0  0
   -0.4967    1.7344   -0.0435 C   0  0  0  0  0  0  0  0  0  0  0  0
    0.8640    1.3753    0.0356 C   0  0  0  0  0  0  0  0  0  0  0  0
    1.4667    0.4723   -0.9057 N   0  0  0  0  0  0  0  0  0  0  0  0
    2.4170   -0.6094   -0.6015 C   0  0  0  0  0  0  0  0  0  0  0  0
    2.2200   -1.2404    0.8006 C   0  0  0  0  0  0  0  0  0  0  0  0
    3.5281   -1.8385    1.3525 C   0  0  0  0  0  0  0  0  0  0  0  0
    4.3701   -2.3751    0.2755 N   0  0  0  0  0  0  0  0  0  0  0  0
    4.8603   -1.3162   -0.6290 C   0  0  0  0  0  0  0  0  0  0  0  0
    3.8654   -0.1490   -0.8218 C   0  0  0  0  0  0  0  0  0  0  0  0
    1.6554    2.0837    0.9686 C   0  0  0  0  0  0  0  0  0  0  0  0
    1.0856    3.1010    1.7618 C   0  0  0  0  0  0  0  0  0  0  0  0
   -0.2313    3.4279    1.6305 N   0  0  0  0  0  0  0  0  0  0  0  0
   -0.9899    2.7485    0.7368 C   0  0  0  0  0  0  0  0  0  0  0  0
   -3.1531    4.8525    0.4372 H   0  0  0  0  0  0  0  0  0  0  0  0
   -4.2252    3.5594    1.1129 H   0  0  0  0  0  0  0  0  0  0  0  0
   -2.8604    4.1987    2.0999 H   0  0  0  0  0  0  0  0  0  0  0  0
   -0.5963   -0.3467   -1.9056 H   0  0  0  0  0  0  0  0  0  0  0  0
   -2.1030    0.2695   -2.5683 H   0  0  0  0  0  0  0  0  0  0  0  0
   -0.7654   -1.1629    0.6651 H   0  0  0  0  0  0  0  0  0  0  0  0
   -1.8452   -2.9565    1.9584 H   0  0  0  0  0  0  0  0  0  0  0  0
   -4.0079   -3.9036    1.2126 H   0  0  0  0  0  0  0  0  0  0  0  0
   -5.0950   -3.0591   -0.8321 H   0  0  0  0  0  0  0  0  0  0  0  0
    1.3388    0.7061   -1.9163 H   0  0  0  0  0  0  0  0  0  0  0  0
    2.2292   -1.4175   -1.3447 H   0  0  0  0  0  0  0  0  0  0  0  0
    1.4629   -2.0503    0.7207 H   0  0  0  0  0  0  0  0  0  0  0  0
    1.8390   -0.5144    1.5450 H   0  0  0  0  0  0  0  0  0  0  0  0
    4.0927   -1.0604    1.9135 H   0  0  0  0  0  0  0  0  0  0  0  0
    3.2887   -2.6515    2.0712 H   0  0  0  0  0  0  0  0  0  0  0  0
    3.8095   -3.0669   -0.2767 H   0  0  0  0  0  0  0  0  0  0  0  0
    5.8179   -0.9169   -0.2310 H   0  0  0  0  0  0  0  0  0  0  0  0
    5.0878   -1.7658   -1.6210 H   0  0  0  0  0  0  0  0  0  0  0  0
    4.1232    0.6573   -0.1070 H   0  0  0  0  0  0  0  0  0  0  0  0
    3.9780    0.2664   -1.8470 H   0  0  0  0  0  0  0  0  0  0  0  0
    2.7090    1.8802    1.0718 H   0  0  0  0  0  0  0  0  0  0  0  0
    1.7015    3.6400    2.4691 H   0  0  0  0  0  0  0  0  0  0  0  0
  1  2  1  0
  2  3  1  0
  3  4  2  0
  3  5  1  0
  5  6  1  0
  6  7  1  0
  7  8  2  0
  8  9  1  0
  9 10  2  0
 10 11  1  0
 11 12  2  0
 12 13  1  0
 13 14  3  0
  5 15  1  0
 15 16  2  0
 16 17  1  0
 17 18  1  0
 18 19  1  0
 19 20  1  0
 20 21  1  0
 21 22  1  0
 22 23  1  0
 16 24  1  0
 24 25  2  0
 25 26  1  0
 26 27  2  0
 27  2  1  0
 12  7  1  0
 27 15  1  0
 23 18  1  0
  1 28  1  0
  1 29  1  0
  1 30  1  0
  6 31  1  0
  6 32  1  0
  8 33  1  0
  9 34  1  0
 10 35  1  0
 11 36  1  0
 17 37  1  0
 18 38  1  0
 19 39  1  0
 19 40  1  0
 20 41  1  0
 20 42  1  0
 21 43  1  0
 22 44  1  0
 22 45  1  0
 23 46  1  0
 23 47  1  0
 24 48  1  0
 25 49  1  0
M  END
$$$$
