
     RDKit          3D

 62 64  0  0  0  0  0  0  0  0999 V2000
   -7.6540    2.1436   -0.8553 C   0  0  0  0  0  0  0  0  0  0  0  0
   -6.3100    2.6131   -0.8794 O   0  0  0  0  0  0  0  0  0  0  0  0
   -5.2164    1.9106   -0.3518 C   0  0  0  0  0  0  0  0  0  0  0  0
   -3.9457    2.4899   -0.4459 C   0  0  0  0  0  0  0  0  0  0  0  0
   -2.8241    1.8293    0.0629 C   0  0  0  0  0  0  0  0  0  0  0  0
   -2.9602    0.5771    0.6808 C   0  0  0  0  0  0  0  0  0  0  0  0
   -1.7442   -0.1480    1.1985 C   0  0  0  0  0  0  0  0  0  0  0  0
   -0.9549   -0.8321    0.0656 C   0  0  0  0  0  0  0  0  0  0  0  0
   -1.7467   -1.9502   -0.5369 C   0  0  0  0  0  0  0  0  0  0  0  0
   -2.7122   -1.8294   -1.4686 N   0  0  0  0  0  0  0  0  0  0  0  0
   -3.2352   -3.0394   -1.6284 N   0  0  0  0  0  0  0  0  0  0  0  0
   -2.5838   -3.8679   -0.7843 C   0  0  0  0  0  0  0  0  0  0  0  0
   -2.9051   -5.3211   -0.6181 C   0  0  0  0  0  0  0  0  0  0  0  0
   -3.9739   -5.6690   -1.4243 F   0  0  0  0  0  0  0  0  0  0  0  0
   -3.2337   -5.5767    0.7001 F   0  0  0  0  0  0  0  0  0  0  0  0
   -1.8069   -6.0816   -0.9732 F   0  0  0  0  0  0  0  0  0  0  0  0
   -1.6319   -3.2038   -0.1038 N   0  0  0  0  0  0  0  0  0  0  0  0
   -0.7850   -3.6014    1.0076 C   0  0  0  0  0  0  0  0  0  0  0  0
    0.5135   -2.7719    0.9980 C   0  0  0  0  0  0  0  0  0  0  0  0
    0.3289   -1.3518    0.6001 N   0  0  0  0  0  0  0  0  0  0  0  0
    1.4546   -0.4596    0.7864 C   0  0  0  0  0  0  0  0  0  0  0  0
    2.3542   -0.7666    1.6175 O   0  0  0  0  0  0  0  0  0  0  0  0
    1.5572    0.8517    0.0347 C   0  0  0  0  0  0  0  0  0  0  0  0
    2.9513    1.5219    0.1170 C   0  0  2  0  0  0  0  0  0  0  0  0
    2.8844    2.8982   -0.3836 N   0  0  0  0  0  0  0  0  0  0  0  0
    4.0038    0.7288   -0.6864 C   0  0  0  0  0  0  0  0  0  0  0  0
    5.3885    1.2922   -0.4819 C   0  0  0  0  0  0  0  0  0  0  0  0
    6.1292    0.9250    0.6545 C   0  0  0  0  0  0  0  0  0  0  0  0
    7.4027    1.4599    0.8718 C   0  0  0  0  0  0  0  0  0  0  0  0
    8.1101    1.0959    1.9700 F   0  0  0  0  0  0  0  0  0  0  0  0
    7.9440    2.3711   -0.0399 C   0  0  0  0  0  0  0  0  0  0  0  0
    9.1784    2.8917    0.1702 F   0  0  0  0  0  0  0  0  0  0  0  0
    7.2106    2.7502   -1.1676 C   0  0  0  0  0  0  0  0  0  0  0  0
    5.9360    2.2184   -1.3902 C   0  0  0  0  0  0  0  0  0  0  0  0
    5.2388    2.6089   -2.4873 F   0  0  0  0  0  0  0  0  0  0  0  0
   -4.2318   -0.0097    0.7728 C   0  0  0  0  0  0  0  0  0  0  0  0
   -5.3531    0.6510    0.2627 C   0  0  0  0  0  0  0  0  0  0  0  0
    0.6878    0.0000    0.0000 Cl  0  0  0  0  0  0  0  0  0  0  0  0
   -8.3097    2.8964   -1.3387 H   0  0  0  0  0  0  0  0  0  0  0  0
   -7.9897    2.0006    0.1935 H   0  0  0  0  0  0  0  0  0  0  0  0
   -7.7349    1.1887   -1.4164 H   0  0  0  0  0  0  0  0  0  0  0  0
   -3.8267    3.4564   -0.9191 H   0  0  0  0  0  0  0  0  0  0  0  0
   -1.8486    2.2914   -0.0275 H   0  0  0  0  0  0  0  0  0  0  0  0
   -1.0895    0.5851    1.7169 H   0  0  0  0  0  0  0  0  0  0  0  0
   -2.0367   -0.9014    1.9630 H   0  0  0  0  0  0  0  0  0  0  0  0
   -0.7668   -0.1049   -0.7501 H   0  0  0  0  0  0  0  0  0  0  0  0
   -1.3330   -3.4248    1.9582 H   0  0  0  0  0  0  0  0  0  0  0  0
   -0.5361   -4.6817    0.9386 H   0  0  0  0  0  0  0  0  0  0  0  0
    0.9522   -2.8262    2.0180 H   0  0  0  0  0  0  0  0  0  0  0  0
    1.2327   -3.2434    0.2937 H   0  0  0  0  0  0  0  0  0  0  0  0
    0.7976    1.5449    0.4542 H   0  0  0  0  0  0  0  0  0  0  0  0
    1.3142    0.6811   -1.0359 H   0  0  0  0  0  0  0  0  0  0  0  0
    3.2671    1.5616    1.1842 H   0  0  0  0  0  0  0  0  0  0  0  0
    2.2577    3.4551    0.2420 H   0  0  0  0  0  0  0  0  0  0  0  0
    2.4573    2.9005   -1.3390 H   0  0  0  0  0  0  0  0  0  0  0  0
    3.7379    0.7335   -1.7661 H   0  0  0  0  0  0  0  0  0  0  0  0
    4.0042   -0.3366   -0.3711 H   0  0  0  0  0  0  0  0  0  0  0  0
    5.7174    0.2257    1.3720 H   0  0  0  0  0  0  0  0  0  0  0  0
    7.6294    3.4598   -1.8696 H   0  0  0  0  0  0  0  0  0  0  0  0
   -4.3539   -0.9828    1.2324 H   0  0  0  0  0  0  0  0  0  0  0  0
   -6.3194    0.1730    0.3479 H   0  0  0  0  0  0  0  0  0  0  0  0
   -0.6878    0.0000    0.0000 H   0  0  0  0  0  0  0  0  0  0  0  0
  1  2  1  0
  2  3  1  0
  3  4  2  0
  4  5  1  0
  5  6  2  0
  6  7  1  0
  7  8  1  0
  8  9  1  0
  9 10  2  0
 10 11  1  0
 11 12  2  0
 12 13  1  0
 13 14  1  0
 13 15  1  0
 13 16  1  0
 12 17  1  0
 17 18  1  0
 18 19  1  0
 19 20  1  0
 20 21  1  0
 21 22  2  0
 21 23  1  0
 23 24  1  0
 24 25  1  0
 24 26  1  0
 26 27  1  0
 27 28  2  0
 28 29  1  0
 29 30  1  0
 29 31  2  0
 31 32  1  0
 31 33  1  0
 33 34  2  0
 34 35  1  0
  6 36  1  0
 36 37  2  0
 37  3  1  0
 20  8  1  0
 34 27  1  0
 17  9  1  0
  1 39  1  0
  1 40  1  0
  1 41  1  0
  4 42  1  0
  5 43  1  0
  7 44  1  0
  7 45  1  0
  8 46  1  0
 18 47  1  0
 18 48  1  0
 19 49  1  0
 19 50  1  0
 23 51  1  0
 23 52  1  0
 24 53  1  1
 25 54  1  0
 25 55  1  0
 26 56  1  0
 26 57  1  0
 28 58  1  0
 33 59  1  0
 36 60  1  0
 37 61  1  0
 38 62  1  0
M  END
$$$$
