
     RDKit          3D

 60 63  0  0  0  0  0  0  0  0999 V2000
    1.5559    0.4102    0.2868 N   0  0  0  0  0  0  0  0  0  0  0  0
    2.9640    0.0620    0.5045 C   0  0  1  0  0  0  0  0  0  0  0  0
    3.1067   -1.3264    1.1680 C   0  0  0  0  0  0  0  0  0  0  0  0
    2.4296   -1.3737    2.5137 C   0  0  0  0  0  0  0  0  0  0  0  0
    2.8821   -0.6582    3.4479 O   0  0  0  0  0  0  0  0  0  0  0  0
    1.2466   -2.1634    2.7375 N   0  0  0  0  0  0  0  0  0  0  0  0
    0.0785   -1.5758    3.3949 C   0  0  0  0  0  0  0  0  0  0  0  0
   -1.0731   -1.4924    2.3900 C   0  0  0  0  0  0  0  0  0  0  0  0
   -1.2383   -2.7707    1.6784 N   0  0  0  0  0  0  0  0  0  0  0  0
   -2.5408   -3.1819    1.2266 C   0  0  0  0  0  0  0  0  0  0  0  0
   -2.8837   -4.3880    1.3602 O   0  0  0  0  0  0  0  0  0  0  0  0
   -3.4626   -2.2249    0.5740 C   0  0  0  0  0  0  0  0  0  0  0  0
   -4.8053   -2.5528    0.3368 C   0  0  0  0  0  0  0  0  0  0  0  0
   -5.6311   -1.6312   -0.3084 C   0  0  0  0  0  0  0  0  0  0  0  0
   -5.1211   -0.3958   -0.7118 C   0  0  0  0  0  0  0  0  0  0  0  0
   -3.7727   -0.0884   -0.4591 C   0  0  0  0  0  0  0  0  0  0  0  0
   -3.1663    1.2070   -0.8636 C   0  0  0  0  0  0  0  0  0  0  0  0
   -3.9392    2.3798   -0.9828 C   0  0  0  0  0  0  0  0  0  0  0  0
   -3.3388    3.5907   -1.3429 C   0  0  0  0  0  0  0  0  0  0  0  0
   -1.9635    3.6500   -1.5796 C   0  0  0  0  0  0  0  0  0  0  0  0
   -1.3839    4.8262   -1.9244 F   0  0  0  0  0  0  0  0  0  0  0  0
   -1.1847    2.4983   -1.4540 C   0  0  0  0  0  0  0  0  0  0  0  0
   -1.7796    1.2846   -1.0985 C   0  0  0  0  0  0  0  0  0  0  0  0
   -2.9935   -1.0157    0.1633 N   0  0  0  0  0  0  0  0  0  0  0  0
   -0.0558   -3.4406    1.1171 C   0  0  0  0  0  0  0  0  0  0  0  0
    1.0681   -3.4937    2.1524 C   0  0  0  0  0  0  0  0  0  0  0  0
    3.7205    0.0922   -0.8363 C   0  0  0  0  0  0  0  0  0  0  0  0
    3.6318    1.4502   -1.4894 C   0  0  0  0  0  0  0  0  0  0  0  0
    4.4966    2.4797   -1.0810 C   0  0  0  0  0  0  0  0  0  0  0  0
    4.3976    3.7534   -1.6496 C   0  0  0  0  0  0  0  0  0  0  0  0
    5.2385    4.7391   -1.2495 F   0  0  0  0  0  0  0  0  0  0  0  0
    3.4296    4.0114   -2.6249 C   0  0  0  0  0  0  0  0  0  0  0  0
    3.3298    5.2472   -3.1742 F   0  0  0  0  0  0  0  0  0  0  0  0
    2.5596    2.9962   -3.0313 C   0  0  0  0  0  0  0  0  0  0  0  0
    2.6546    1.7199   -2.4668 C   0  0  0  0  0  0  0  0  0  0  0  0
    1.7889    0.7541   -2.8671 F   0  0  0  0  0  0  0  0  0  0  0  0
    1.1108    0.6229    1.2082 H   0  0  0  0  0  0  0  0  0  0  0  0
    1.0537   -0.4034   -0.1373 H   0  0  0  0  0  0  0  0  0  0  0  0
    3.4233    0.8238    1.1751 H   0  0  0  0  0  0  0  0  0  0  0  0
    4.1840   -1.5580    1.3140 H   0  0  0  0  0  0  0  0  0  0  0  0
    2.6929   -2.0955    0.4847 H   0  0  0  0  0  0  0  0  0  0  0  0
   -0.2224   -2.2167    4.2519 H   0  0  0  0  0  0  0  0  0  0  0  0
    0.3024   -0.5595    3.7866 H   0  0  0  0  0  0  0  0  0  0  0  0
   -2.0061   -1.2284    2.9346 H   0  0  0  0  0  0  0  0  0  0  0  0
   -0.8562   -0.6893    1.6556 H   0  0  0  0  0  0  0  0  0  0  0  0
   -5.2108   -3.5088    0.6437 H   0  0  0  0  0  0  0  0  0  0  0  0
   -6.6670   -1.8778   -0.5028 H   0  0  0  0  0  0  0  0  0  0  0  0
   -5.7706    0.2925   -1.2353 H   0  0  0  0  0  0  0  0  0  0  0  0
   -5.0002    2.3746   -0.7737 H   0  0  0  0  0  0  0  0  0  0  0  0
   -3.9410    4.4860   -1.4292 H   0  0  0  0  0  0  0  0  0  0  0  0
   -0.1186    2.5449   -1.6305 H   0  0  0  0  0  0  0  0  0  0  0  0
   -1.1558    0.4039   -1.0164 H   0  0  0  0  0  0  0  0  0  0  0  0
   -0.3014   -4.4779    0.8009 H   0  0  0  0  0  0  0  0  0  0  0  0
    0.2883   -2.8788    0.2224 H   0  0  0  0  0  0  0  0  0  0  0  0
    0.7861   -4.2080    2.9564 H   0  0  0  0  0  0  0  0  0  0  0  0
    2.0064   -3.8726    1.6951 H   0  0  0  0  0  0  0  0  0  0  0  0
    4.7907   -0.1570   -0.6630 H   0  0  0  0  0  0  0  0  0  0  0  0
    3.3173   -0.6902   -1.5160 H   0  0  0  0  0  0  0  0  0  0  0  0
    5.2438    2.2949   -0.3189 H   0  0  0  0  0  0  0  0  0  0  0  0
    1.8058    3.1997   -3.7811 H   0  0  0  0  0  0  0  0  0  0  0  0
  1  2  1  0
  2  3  1  0
  3  4  1  0
  4  5  2  0
  4  6  1  0
  6  7  1  0
  7  8  1  0
  8  9  1  0
  9 10  1  0
 10 11  2  0
 10 12  1  0
 12 13  2  0
 13 14  1  0
 14 15  2  0
 15 16  1  0
 16 17  1  0
 17 18  2  0
 18 19  1  0
 19 20  2  0
 20 21  1  0
 20 22  1  0
 22 23  2  0
 16 24  2  0
  9 25  1  0
 25 26  1  0
  2 27  1  0
 27 28  1  0
 28 29  2  0
 29 30  1  0
 30 31  1  0
 30 32  2  0
 32 33  1  0
 32 34  1  0
 34 35  2  0
 35 36  1  0
 26  6  1  0
 35 28  1  0
 24 12  1  0
 23 17  1  0
  1 37  1  0
  1 38  1  0
  2 39  1  1
  3 40  1  0
  3 41  1  0
  7 42  1  0
  7 43  1  0
  8 44  1  0
  8 45  1  0
 13 46  1  0
 14 47  1  0
 15 48  1  0
 18 49  1  0
 19 50  1  0
 22 51  1  0
 23 52  1  0
 25 53  1  0
 25 54  1  0
 26 55  1  0
 26 56  1  0
 27 57  1  0
 27 58  1  0
 29 59  1  0
 34 60  1  0
M  END
$$$$
