
     RDKit          3D

 34 35  0  0  0  0  0  0  0  0999 V2000
    1.2404   -2.1789   -1.2978 F   0  0  0  0  0  0  0  0  0  0  0  0
    1.2853   -1.0956   -0.4753 C   0  0  0  0  0  0  0  0  0  0  0  0
    0.0016   -0.6369    0.1639 C   0  0  0  0  0  0  0  0  0  0  0  0
   -0.3695    0.6881   -0.3494 N   0  0  0  0  0  0  0  0  0  0  0  0
   -1.4611    1.2934    0.4282 C   0  0  0  0  0  0  0  0  0  0  0  0
   -2.7722    0.5720    0.2239 C   0  0  0  0  0  0  0  0  0  0  0  0
   -3.2389   -0.3419    1.1835 C   0  0  0  0  0  0  0  0  0  0  0  0
   -4.4412   -1.0258    0.9786 C   0  0  0  0  0  0  0  0  0  0  0  0
   -5.1832   -0.8057   -0.1856 C   0  0  0  0  0  0  0  0  0  0  0  0
   -6.3482   -1.4704   -0.3830 F   0  0  0  0  0  0  0  0  0  0  0  0
   -4.7219    0.0977   -1.1477 C   0  0  0  0  0  0  0  0  0  0  0  0
   -3.5198    0.7830   -0.9464 C   0  0  0  0  0  0  0  0  0  0  0  0
    2.4672   -0.4867   -0.2495 C   0  0  0  0  0  0  0  0  0  0  0  0
    3.7404   -0.9369   -0.8793 C   0  0  0  0  0  0  0  0  0  0  0  0
    4.7557    0.1332   -0.4967 C   0  0  0  0  0  0  0  0  0  0  0  0
    4.1759    0.8750    0.7072 C   0  0  0  0  0  0  0  0  0  0  0  0
    2.6641    0.6940    0.6439 C   0  0  0  0  0  0  0  0  0  0  0  0
    0.1335   -0.6152    1.2681 H   0  0  0  0  0  0  0  0  0  0  0  0
   -0.7983   -1.3731   -0.0721 H   0  0  0  0  0  0  0  0  0  0  0  0
   -0.6664    0.5952   -1.3498 H   0  0  0  0  0  0  0  0  0  0  0  0
   -1.5786    2.3509    0.1074 H   0  0  0  0  0  0  0  0  0  0  0  0
   -1.1912    1.3301    1.5070 H   0  0  0  0  0  0  0  0  0  0  0  0
   -2.6704   -0.5278    2.0864 H   0  0  0  0  0  0  0  0  0  0  0  0
   -4.7957   -1.7281    1.7220 H   0  0  0  0  0  0  0  0  0  0  0  0
   -5.2942    0.2661   -2.0509 H   0  0  0  0  0  0  0  0  0  0  0  0
   -3.1705    1.4764   -1.7015 H   0  0  0  0  0  0  0  0  0  0  0  0
    3.6387   -1.0019   -1.9846 H   0  0  0  0  0  0  0  0  0  0  0  0
    4.0356   -1.9246   -0.4635 H   0  0  0  0  0  0  0  0  0  0  0  0
    4.8798    0.8460   -1.3420 H   0  0  0  0  0  0  0  0  0  0  0  0
    5.7434   -0.3160   -0.2554 H   0  0  0  0  0  0  0  0  0  0  0  0
    4.4545    1.9510    0.6894 H   0  0  0  0  0  0  0  0  0  0  0  0
    4.5658    0.4166    1.6430 H   0  0  0  0  0  0  0  0  0  0  0  0
    2.1845    1.5909    0.1960 H   0  0  0  0  0  0  0  0  0  0  0  0
    2.2548    0.5060    1.6598 H   0  0  0  0  0  0  0  0  0  0  0  0
  1  2  1  0
  2  3  1  0
  3  4  1  0
  4  5  1  0
  5  6  1  0
  6  7  2  0
  7  8  1  0
  8  9  2  0
  9 10  1  0
  9 11  1  0
 11 12  2  0
  2 13  2  3
 13 14  1  0
 14 15  1  0
 15 16  1  0
 16 17  1  0
 12  6  1  0
 17 13  1  0
  3 18  1  0
  3 19  1  0
  4 20  1  0
  5 21  1  0
  5 22  1  0
  7 23  1  0
  8 24  1  0
 11 25  1  0
 12 26  1  0
 14 27  1  0
 14 28  1  0
 15 29  1  0
 15 30  1  0
 16 31  1  0
 16 32  1  0
 17 33  1  0
 17 34  1  0
M  END
$$$$
