
     RDKit          3D

 59 62  0  0  0  0  0  0  0  0999 V2000
    3.9396   -1.4715   -0.5529 N   0  0  0  0  0  0  0  0  0  0  0  0
    3.3929   -0.4424   -1.4438 C   0  0  1  0  0  0  0  0  0  0  0  0
    2.2860   -1.0390   -2.3409 C   0  0  0  0  0  0  0  0  0  0  0  0
    1.1686   -1.6538   -1.5440 C   0  0  0  0  0  0  0  0  0  0  0  0
    1.2426   -2.8693   -1.2281 O   0  0  0  0  0  0  0  0  0  0  0  0
    0.0532   -0.8452   -1.1278 N   0  0  0  0  0  0  0  0  0  0  0  0
   -0.9919   -1.2304   -0.1517 C   0  0  0  0  0  0  0  0  0  0  0  0
   -1.7839    0.0661    0.1712 C   0  0  0  0  0  0  0  0  0  0  0  0
   -1.1206    1.1021    0.8661 C   0  0  0  0  0  0  0  0  0  0  0  0
   -1.7574    2.3102    1.1439 C   0  0  0  0  0  0  0  0  0  0  0  0
   -3.0631    2.5300    0.7145 C   0  0  0  0  0  0  0  0  0  0  0  0
   -3.7440    1.5463   -0.0170 C   0  0  0  0  0  0  0  0  0  0  0  0
   -5.1268    1.8015   -0.4877 C   0  0  0  0  0  0  0  0  0  0  0  0
   -5.7890    2.9604   -0.2657 N   0  0  0  0  0  0  0  0  0  0  0  0
   -7.0427    2.9496   -0.7928 C   0  0  0  0  0  0  0  0  0  0  0  0
   -7.3996    1.7763   -1.4445 C   0  0  0  0  0  0  0  0  0  0  0  0
   -6.0940    0.7233   -1.3519 S   0  0  0  0  0  0  0  0  0  0  0  0
   -3.0944    0.3291   -0.2997 C   0  0  0  0  0  0  0  0  0  0  0  0
   -1.8794   -2.3395   -0.8118 C   0  0  0  0  0  0  0  0  0  0  0  0
   -2.9109   -2.9601    0.1417 C   0  0  0  0  0  0  0  0  0  0  0  0
   -2.0751   -3.8047    1.4655 S   0  0  0  0  0  0  0  0  0  0  0  0
   -2.1219   -5.2898    1.2414 O   0  0  0  0  0  0  0  0  0  0  0  0
   -2.7281   -3.4722    2.7776 O   0  0  0  0  0  0  0  0  0  0  0  0
   -0.3851   -3.2508    1.4702 C   0  0  0  0  0  0  0  0  0  0  0  0
   -0.3219   -1.7412    1.1898 C   0  0  0  0  0  0  0  0  0  0  0  0
    2.8653    0.7594   -0.6282 C   0  0  0  0  0  0  0  0  0  0  0  0
    3.9824    1.5229    0.0396 C   0  0  0  0  0  0  0  0  0  0  0  0
    4.7513    2.4307   -0.7086 C   0  0  0  0  0  0  0  0  0  0  0  0
    5.8011    3.1308   -0.1073 C   0  0  0  0  0  0  0  0  0  0  0  0
    6.0952    2.9279    1.2431 C   0  0  0  0  0  0  0  0  0  0  0  0
    5.3414    2.0227    1.9944 C   0  0  0  0  0  0  0  0  0  0  0  0
    4.2893    1.3186    1.3992 C   0  0  0  0  0  0  0  0  0  0  0  0
    3.5773    0.4371    2.1464 F   0  0  0  0  0  0  0  0  0  0  0  0
    4.7989   -1.0925   -0.0937 H   0  0  0  0  0  0  0  0  0  0  0  0
    4.2682   -2.2750   -1.1367 H   0  0  0  0  0  0  0  0  0  0  0  0
    4.2019   -0.0825   -2.1204 H   0  0  0  0  0  0  0  0  0  0  0  0
    2.7305   -1.8154   -3.0013 H   0  0  0  0  0  0  0  0  0  0  0  0
    1.8795   -0.2511   -3.0114 H   0  0  0  0  0  0  0  0  0  0  0  0
    0.0010    0.1070   -1.5587 H   0  0  0  0  0  0  0  0  0  0  0  0
   -0.0963    0.9776    1.1932 H   0  0  0  0  0  0  0  0  0  0  0  0
   -1.2319    3.0835    1.6895 H   0  0  0  0  0  0  0  0  0  0  0  0
   -3.5349    3.4771    0.9447 H   0  0  0  0  0  0  0  0  0  0  0  0
   -7.7076    3.7981   -0.7055 H   0  0  0  0  0  0  0  0  0  0  0  0
   -8.3486    1.5788   -1.9242 H   0  0  0  0  0  0  0  0  0  0  0  0
   -3.6254   -0.3964   -0.8906 H   0  0  0  0  0  0  0  0  0  0  0  0
   -1.2392   -3.1637   -1.1893 H   0  0  0  0  0  0  0  0  0  0  0  0
   -2.3801   -1.9530   -1.7234 H   0  0  0  0  0  0  0  0  0  0  0  0
   -3.5789   -2.1894    0.5743 H   0  0  0  0  0  0  0  0  0  0  0  0
   -3.5388   -3.6876   -0.4148 H   0  0  0  0  0  0  0  0  0  0  0  0
    0.1871   -3.8264    0.7194 H   0  0  0  0  0  0  0  0  0  0  0  0
    0.0604   -3.4627    2.4654 H   0  0  0  0  0  0  0  0  0  0  0  0
    0.7430   -1.4253    1.2291 H   0  0  0  0  0  0  0  0  0  0  0  0
   -0.8055   -1.2607    2.0697 H   0  0  0  0  0  0  0  0  0  0  0  0
    2.1343    0.4103    0.1307 H   0  0  0  0  0  0  0  0  0  0  0  0
    2.3171    1.4547   -1.3014 H   0  0  0  0  0  0  0  0  0  0  0  0
    4.5371    2.5944   -1.7577 H   0  0  0  0  0  0  0  0  0  0  0  0
    6.3880    3.8298   -0.6891 H   0  0  0  0  0  0  0  0  0  0  0  0
    6.9090    3.4702    1.7069 H   0  0  0  0  0  0  0  0  0  0  0  0
    5.5750    1.8650    3.0395 H   0  0  0  0  0  0  0  0  0  0  0  0
  1  2  1  0
  2  3  1  0
  3  4  1  0
  4  5  2  0
  4  6  1  0
  6  7  1  0
  7  8  1  0
  8  9  2  0
  9 10  1  0
 10 11  2  0
 11 12  1  0
 12 13  1  0
 13 14  2  0
 14 15  1  0
 15 16  2  0
 16 17  1  0
 12 18  2  0
  7 19  1  0
 19 20  1  0
 20 21  1  0
 21 22  2  0
 21 23  2  0
 21 24  1  0
 24 25  1  0
  2 26  1  0
 26 27  1  0
 27 28  2  0
 28 29  1  0
 29 30  2  0
 30 31  1  0
 31 32  2  0
 32 33  1  0
 25  7  1  0
 32 27  1  0
 18  8  1  0
 17 13  1  0
  1 34  1  0
  1 35  1  0
  2 36  1  6
  3 37  1  0
  3 38  1  0
  6 39  1  0
  9 40  1  0
 10 41  1  0
 11 42  1  0
 15 43  1  0
 16 44  1  0
 18 45  1  0
 19 46  1  0
 19 47  1  0
 20 48  1  0
 20 49  1  0
 24 50  1  0
 24 51  1  0
 25 52  1  0
 25 53  1  0
 26 54  1  0
 26 55  1  0
 28 56  1  0
 29 57  1  0
 30 58  1  0
 31 59  1  0
M  END
$$$$
