
     RDKit          3D

 37 38  0  0  0  0  0  0  0  0999 V2000
    0.3030   -0.4353   -3.0394 N   0  0  0  0  0  0  0  0  0  0  0  0
    0.4317    0.0978   -1.6787 C   0  0  2  0  0  0  0  0  0  0  0  0
    1.4314   -0.7184   -0.8687 C   0  0  0  0  0  0  0  0  0  0  0  0
    1.3205   -1.9755   -0.8595 O   0  0  0  0  0  0  0  0  0  0  0  0
    2.5010   -0.1052   -0.1154 N   0  0  0  0  0  0  0  0  0  0  0  0
    3.3953   -0.9135    0.7035 C   0  0  0  0  0  0  0  0  0  0  0  0
    4.6020   -0.0656    1.0659 C   0  0  0  0  0  0  0  0  0  0  0  0
    4.0846    1.6707    1.0868 S   0  0  0  0  0  0  0  0  0  0  0  0
    2.7827    1.3254   -0.1301 C   0  0  0  0  0  0  0  0  0  0  0  0
   -0.9673    0.2135   -1.0040 C   0  0  1  0  0  0  0  0  0  0  0  0
   -1.6473   -1.1504   -0.7326 C   0  0  0  0  0  0  0  0  0  0  0  0
   -3.0411   -0.9588   -0.1215 C   0  0  0  0  0  0  0  0  0  0  0  0
   -2.9641   -0.1401    1.1774 C   0  0  2  0  0  0  0  0  0  0  0  0
   -4.3070    0.0359    1.7336 N   0  0  0  0  0  0  0  0  0  0  0  0
   -2.2902    1.2220    0.9190 C   0  0  0  0  0  0  0  0  0  0  0  0
   -0.8989    1.0417    0.2978 C   0  0  0  0  0  0  0  0  0  0  0  0
    0.0886   -1.4579   -3.0119 H   0  0  0  0  0  0  0  0  0  0  0  0
    1.2247   -0.3322   -3.5240 H   0  0  0  0  0  0  0  0  0  0  0  0
    0.8120    1.1341   -1.7924 H   0  0  0  0  0  0  0  0  0  0  0  0
    3.7328   -1.8132    0.1442 H   0  0  0  0  0  0  0  0  0  0  0  0
    2.8594   -1.2328    1.6234 H   0  0  0  0  0  0  0  0  0  0  0  0
    5.3936   -0.1871    0.2956 H   0  0  0  0  0  0  0  0  0  0  0  0
    5.0086   -0.3586    2.0568 H   0  0  0  0  0  0  0  0  0  0  0  0
    3.1279    1.6325   -1.1397 H   0  0  0  0  0  0  0  0  0  0  0  0
    1.8831    1.9025    0.1597 H   0  0  0  0  0  0  0  0  0  0  0  0
   -1.6165    0.7741   -1.7152 H   0  0  0  0  0  0  0  0  0  0  0  0
   -1.7601   -1.7201   -1.6784 H   0  0  0  0  0  0  0  0  0  0  0  0
   -1.0381   -1.7573   -0.0298 H   0  0  0  0  0  0  0  0  0  0  0  0
   -3.7008   -0.4469   -0.8569 H   0  0  0  0  0  0  0  0  0  0  0  0
   -3.4814   -1.9560    0.0967 H   0  0  0  0  0  0  0  0  0  0  0  0
   -2.3525   -0.7073    1.9154 H   0  0  0  0  0  0  0  0  0  0  0  0
   -4.2257    0.5272    2.6536 H   0  0  0  0  0  0  0  0  0  0  0  0
   -4.8683    0.6515    1.1003 H   0  0  0  0  0  0  0  0  0  0  0  0
   -2.9196    1.8358    0.2372 H   0  0  0  0  0  0  0  0  0  0  0  0
   -2.1874    1.7735    1.8786 H   0  0  0  0  0  0  0  0  0  0  0  0
   -0.2303    0.5446    1.0347 H   0  0  0  0  0  0  0  0  0  0  0  0
   -0.4862    2.0495    0.0777 H   0  0  0  0  0  0  0  0  0  0  0  0
  1  2  1  0
  2  3  1  0
  3  4  2  0
  3  5  1  0
  5  6  1  0
  6  7  1  0
  7  8  1  0
  8  9  1  0
  2 10  1  0
 10 11  1  0
 11 12  1  0
 12 13  1  0
 13 14  1  0
 13 15  1  0
 15 16  1  0
  9  5  1  0
 16 10  1  0
  1 17  1  0
  1 18  1  0
  2 19  1  6
  6 20  1  0
  6 21  1  0
  7 22  1  0
  7 23  1  0
  9 24  1  0
  9 25  1  0
 10 26  1  6
 11 27  1  0
 11 28  1  0
 12 29  1  0
 12 30  1  0
 13 31  1  1
 14 32  1  0
 14 33  1  0
 15 34  1  0
 15 35  1  0
 16 36  1  0
 16 37  1  0
M  END
$$$$
