
     RDKit          3D

 64 66  0  0  0  0  0  0  0  0999 V2000
    3.1308   -3.3899   -0.5929 C   0  0  0  0  0  0  0  0  0  0  0  0
    1.9698   -3.8273    0.1915 N   0  0  0  0  0  0  0  0  0  0  0  0
    1.8501   -5.2362    0.5840 C   0  0  0  0  0  0  0  0  0  0  0  0
    0.9213   -2.9071    0.5803 C   0  0  0  0  0  0  0  0  0  0  0  0
   -0.0941   -3.3597    1.1783 O   0  0  0  0  0  0  0  0  0  0  0  0
    1.0308   -1.4051    0.3498 C   0  0  1  0  0  0  0  0  0  0  0  0
   -0.3227   -0.7699    0.0300 C   0  0  0  0  0  0  0  0  0  0  0  0
   -1.3703   -0.7368    0.9707 C   0  0  0  0  0  0  0  0  0  0  0  0
   -2.5881   -0.1259    0.6611 C   0  0  0  0  0  0  0  0  0  0  0  0
   -2.7913    0.4687   -0.5953 C   0  0  0  0  0  0  0  0  0  0  0  0
   -4.0848    1.1204   -0.9224 C   0  0  0  0  0  0  0  0  0  0  0  0
   -4.6601    0.9870   -2.2137 C   0  0  0  0  0  0  0  0  0  0  0  0
   -5.8838    1.6044   -2.5242 C   0  0  0  0  0  0  0  0  0  0  0  0
   -6.4996    2.3440   -1.5215 C   0  0  0  0  0  0  0  0  0  0  0  0
   -7.6633    3.0128   -1.6050 N   0  0  0  0  0  0  0  0  0  0  0  0
   -7.8527    3.5704   -0.4114 N   0  0  0  0  0  0  0  0  0  0  0  0
   -6.8039    3.2312    0.3729 C   0  0  0  0  0  0  0  0  0  0  0  0
   -5.9465    2.4603   -0.3111 N   0  0  0  0  0  0  0  0  0  0  0  0
   -4.7708    1.8881    0.0448 C   0  0  0  0  0  0  0  0  0  0  0  0
   -1.7487    0.4375   -1.5360 C   0  0  0  0  0  0  0  0  0  0  0  0
   -0.5306   -0.1727   -1.2270 C   0  0  0  0  0  0  0  0  0  0  0  0
    1.7884   -0.6903    1.5070 C   0  0  2  0  0  0  0  0  0  0  0  0
    1.1228   -0.8853    2.7995 N   0  0  0  0  0  0  0  0  0  0  0  0
    1.9301    0.7906    1.2099 C   0  0  0  0  0  0  0  0  0  0  0  0
    1.0442    1.5854    1.6299 O   0  0  0  0  0  0  0  0  0  0  0  0
    3.0063    1.3027    0.4012 N   0  0  0  0  0  0  0  0  0  0  0  0
    4.1397    0.5219   -0.0687 C   0  0  0  0  0  0  0  0  0  0  0  0
    5.0751    1.5183   -0.7409 C   0  0  0  0  0  0  0  0  0  0  0  0
    4.2312    2.7615   -1.0100 C   0  0  2  0  0  0  0  0  0  0  0  0
    4.9692    3.9165   -0.8125 F   0  0  0  0  0  0  0  0  0  0  0  0
    3.0604    2.6862   -0.0387 C   0  0  0  0  0  0  0  0  0  0  0  0
    0.7393   -0.0192   -1.5529 O   0  0  0  0  0  0  0  0  0  0  0  0
    0.4678   -0.0001   -0.3225 C   0  0  0  0  0  0  0  0  0  0  0  0
    1.4933   -0.0791    0.6150 O   0  0  0  0  0  0  0  0  0  0  0  0
   -0.9560    0.0475    0.1285 C   0  0  0  0  0  0  0  0  0  0  0  0
   -1.4856   -1.2289    0.1102 F   0  0  0  0  0  0  0  0  0  0  0  0
   -1.6923    0.8594   -0.7152 F   0  0  0  0  0  0  0  0  0  0  0  0
   -1.0282    0.5516    1.4142 F   0  0  0  0  0  0  0  0  0  0  0  0
    2.7962   -2.9870   -1.5716 H   0  0  0  0  0  0  0  0  0  0  0  0
    3.6957   -2.6156   -0.0364 H   0  0  0  0  0  0  0  0  0  0  0  0
    3.8290   -4.2280   -0.7983 H   0  0  0  0  0  0  0  0  0  0  0  0
    0.9276   -5.6706    0.1440 H   0  0  0  0  0  0  0  0  0  0  0  0
    1.7985   -5.3127    1.6907 H   0  0  0  0  0  0  0  0  0  0  0  0
    2.7147   -5.8400    0.2374 H   0  0  0  0  0  0  0  0  0  0  0  0
    1.6613   -1.2649   -0.5497 H   0  0  0  0  0  0  0  0  0  0  0  0
   -1.2575   -1.1883    1.9459 H   0  0  0  0  0  0  0  0  0  0  0  0
   -3.3783   -0.1345    1.4012 H   0  0  0  0  0  0  0  0  0  0  0  0
   -4.1714    0.3915   -2.9742 H   0  0  0  0  0  0  0  0  0  0  0  0
   -6.3300    1.5043   -3.5052 H   0  0  0  0  0  0  0  0  0  0  0  0
   -6.6786    3.5393    1.4028 H   0  0  0  0  0  0  0  0  0  0  0  0
   -4.3704    2.0375    1.0400 H   0  0  0  0  0  0  0  0  0  0  0  0
   -1.8664    0.9043   -2.5058 H   0  0  0  0  0  0  0  0  0  0  0  0
    0.2551   -0.1685   -1.9722 H   0  0  0  0  0  0  0  0  0  0  0  0
    2.8043   -1.1325    1.5852 H   0  0  0  0  0  0  0  0  0  0  0  0
    1.1980   -1.8933    3.0666 H   0  0  0  0  0  0  0  0  0  0  0  0
    1.6605   -0.3644    3.5307 H   0  0  0  0  0  0  0  0  0  0  0  0
    3.7958   -0.2350   -0.8044 H   0  0  0  0  0  0  0  0  0  0  0  0
    4.6561    0.0277    0.7821 H   0  0  0  0  0  0  0  0  0  0  0  0
    5.9079    1.7708   -0.0477 H   0  0  0  0  0  0  0  0  0  0  0  0
    5.4978    1.1055   -1.6827 H   0  0  0  0  0  0  0  0  0  0  0  0
    3.8538    2.7366   -2.0561 H   0  0  0  0  0  0  0  0  0  0  0  0
    2.1139    2.9682   -0.5496 H   0  0  0  0  0  0  0  0  0  0  0  0
    3.2277    3.3477    0.8391 H   0  0  0  0  0  0  0  0  0  0  0  0
    2.4618   -0.1312    0.3226 H   0  0  0  0  0  0  0  0  0  0  0  0
  1  2  1  0
  2  3  1  0
  2  4  1  0
  4  5  2  0
  4  6  1  0
  6  7  1  0
  7  8  2  0
  8  9  1  0
  9 10  2  0
 10 11  1  0
 11 12  1  0
 12 13  2  0
 13 14  1  0
 14 15  2  0
 15 16  1  0
 16 17  2  0
 17 18  1  0
 18 19  1  0
 10 20  1  0
 20 21  2  0
  6 22  1  0
 22 23  1  0
 22 24  1  0
 24 25  2  0
 24 26  1  0
 26 27  1  0
 27 28  1  0
 28 29  1  0
 29 30  1  0
 29 31  1  0
 32 33  2  0
 33 34  1  0
 33 35  1  0
 35 36  1  0
 35 37  1  0
 35 38  1  0
 21  7  1  0
 31 26  1  0
 19 11  2  0
 18 14  1  0
  1 39  1  0
  1 40  1  0
  1 41  1  0
  3 42  1  0
  3 43  1  0
  3 44  1  0
  6 45  1  6
  8 46  1  0
  9 47  1  0
 12 48  1  0
 13 49  1  0
 17 50  1  0
 19 51  1  0
 20 52  1  0
 21 53  1  0
 22 54  1  1
 23 55  1  0
 23 56  1  0
 27 57  1  0
 27 58  1  0
 28 59  1  0
 28 60  1  0
 29 61  1  6
 31 62  1  0
 31 63  1  0
 34 64  1  0
M  END
$$$$
