
     RDKit          3D

 31 31  0  0  0  0  0  0  0  0999 V2000
    3.8095    0.0557   -0.5294 N   0  0  0  0  0  0  0  0  0  0  0  0
    3.2740   -0.3087    0.7791 C   0  0  0  0  0  0  0  0  0  0  0  0
    1.7381   -0.3363    0.7611 C   0  0  0  0  0  0  0  0  0  0  0  0
    1.1006    1.0746    0.7708 C   0  0  0  0  0  0  0  0  0  0  0  0
    1.3569    1.8203   -0.4649 N   0  0  0  0  0  0  0  0  0  0  0  0
   -0.3868    0.9907    1.0199 C   0  0  0  0  0  0  0  0  0  0  0  0
   -0.8951    1.6941    1.9340 O   0  0  0  0  0  0  0  0  0  0  0  0
   -1.2328    0.0971    0.2780 N   0  0  0  0  0  0  0  0  0  0  0  0
   -1.7985   -1.0675    0.9626 C   0  0  0  0  0  0  0  0  0  0  0  0
   -3.1711   -1.4112    0.3743 C   0  0  0  0  0  0  0  0  0  0  0  0
   -3.1104   -1.5218   -1.0892 N   0  0  0  0  0  0  0  0  0  0  0  0
   -2.6665   -0.2559   -1.6879 C   0  0  0  0  0  0  0  0  0  0  0  0
   -1.2733    0.1420   -1.1860 C   0  0  0  0  0  0  0  0  0  0  0  0
    3.6163   -0.7295   -1.1931 H   0  0  0  0  0  0  0  0  0  0  0  0
    4.8493    0.1213   -0.4408 H   0  0  0  0  0  0  0  0  0  0  0  0
    3.6326    0.4131    1.5453 H   0  0  0  0  0  0  0  0  0  0  0  0
    3.6510   -1.3170    1.0626 H   0  0  0  0  0  0  0  0  0  0  0  0
    1.4040   -0.8763    1.6746 H   0  0  0  0  0  0  0  0  0  0  0  0
    1.3833   -0.9256   -0.1116 H   0  0  0  0  0  0  0  0  0  0  0  0
    1.5446    1.6414    1.6217 H   0  0  0  0  0  0  0  0  0  0  0  0
    2.3091    2.2488   -0.4096 H   0  0  0  0  0  0  0  0  0  0  0  0
    1.3561    1.1735   -1.2864 H   0  0  0  0  0  0  0  0  0  0  0  0
   -1.9125   -0.8663    2.0505 H   0  0  0  0  0  0  0  0  0  0  0  0
   -1.1116   -1.9326    0.8388 H   0  0  0  0  0  0  0  0  0  0  0  0
   -3.9100   -0.6314    0.6636 H   0  0  0  0  0  0  0  0  0  0  0  0
   -3.5200   -2.3764    0.8002 H   0  0  0  0  0  0  0  0  0  0  0  0
   -2.4321   -2.2775   -1.3469 H   0  0  0  0  0  0  0  0  0  0  0  0
   -2.6395   -0.3637   -2.7936 H   0  0  0  0  0  0  0  0  0  0  0  0
   -3.3960    0.5494   -1.4491 H   0  0  0  0  0  0  0  0  0  0  0  0
   -0.5153   -0.5562   -1.6010 H   0  0  0  0  0  0  0  0  0  0  0  0
   -1.0540    1.1695   -1.5478 H   0  0  0  0  0  0  0  0  0  0  0  0
  1  2  1  0
  2  3  1  0
  3  4  1  0
  4  5  1  0
  4  6  1  0
  6  7  2  0
  6  8  1  0
  8  9  1  0
  9 10  1  0
 10 11  1  0
 11 12  1  0
 12 13  1  0
 13  8  1  0
  1 14  1  0
  1 15  1  0
  2 16  1  0
  2 17  1  0
  3 18  1  0
  3 19  1  0
  4 20  1  0
  5 21  1  0
  5 22  1  0
  9 23  1  0
  9 24  1  0
 10 25  1  0
 10 26  1  0
 11 27  1  0
 12 28  1  0
 12 29  1  0
 13 30  1  0
 13 31  1  0
M  END
$$$$
