
     RDKit          3D

 48 49  0  0  0  0  0  0  0  0999 V2000
    6.8209    0.3561   -0.1131 C   0  0  0  0  0  0  0  0  0  0  0  0
    5.5761    0.5465    0.5229 O   0  0  0  0  0  0  0  0  0  0  0  0
    4.5568    0.7608   -0.4400 C   0  0  2  0  0  0  0  0  0  0  0  0
    3.4850    1.6614    0.1637 C   0  0  0  0  0  0  0  0  0  0  0  0
    2.5239    0.7248    0.9070 C   0  0  1  0  0  0  0  0  0  0  0  0
    1.0378    1.0250    0.6847 C   0  0  0  0  0  0  0  0  0  0  0  0
    0.3726   -0.3413    0.5733 C   0  0  1  0  0  0  0  0  0  0  0  0
   -0.8891   -0.2511   -0.1830 N   0  0  0  0  0  0  0  0  0  0  0  0
   -1.6418   -1.5095   -0.1285 C   0  0  0  0  0  0  0  0  0  0  0  0
   -3.0145   -1.2983   -0.6972 C   0  0  0  0  0  0  0  0  0  0  0  0
   -3.2766   -1.7546   -1.8431 O   0  0  0  0  0  0  0  0  0  0  0  0
   -4.0160   -0.5544    0.0232 N   0  0  0  0  0  0  0  0  0  0  0  0
   -3.8393   -0.0562    1.3788 C   0  0  0  0  0  0  0  0  0  0  0  0
   -5.1172    0.7043    1.7081 C   0  0  0  0  0  0  0  0  0  0  0  0
   -6.1524    0.2343    0.6897 C   0  0  0  0  0  0  0  0  0  0  0  0
   -5.3512   -0.3002   -0.4976 C   0  0  1  0  0  0  0  0  0  0  0  0
   -5.2851    0.6915   -1.5836 C   0  0  0  0  0  0  0  0  0  0  0  0
   -5.2321    1.4708   -2.4374 N   0  0  0  0  0  0  0  0  0  0  0  0
    1.4206   -1.2320   -0.0994 C   0  0  0  0  0  0  0  0  0  0  0  0
    2.7735   -0.6825    0.3699 C   0  0  1  0  0  0  0  0  0  0  0  0
    3.8278   -0.5478   -0.7334 C   0  0  0  0  0  0  0  0  0  0  0  0
    0.6878    0.0000    0.0000 Cl  0  0  0  0  0  0  0  0  0  0  0  0
    6.7801   -0.4731   -0.8539 H   0  0  0  0  0  0  0  0  0  0  0  0
    7.5734    0.0850    0.6554 H   0  0  0  0  0  0  0  0  0  0  0  0
    7.1597    1.2958   -0.6021 H   0  0  0  0  0  0  0  0  0  0  0  0
    4.9328    1.2280   -1.3837 H   0  0  0  0  0  0  0  0  0  0  0  0
    2.9740    2.2076   -0.6593 H   0  0  0  0  0  0  0  0  0  0  0  0
    3.9270    2.4121    0.8547 H   0  0  0  0  0  0  0  0  0  0  0  0
    2.7483    0.7472    1.9980 H   0  0  0  0  0  0  0  0  0  0  0  0
    0.8743    1.5962   -0.2556 H   0  0  0  0  0  0  0  0  0  0  0  0
    0.6154    1.6065    1.5329 H   0  0  0  0  0  0  0  0  0  0  0  0
    0.1790   -0.7134    1.6064 H   0  0  0  0  0  0  0  0  0  0  0  0
   -0.6873   -0.0235   -1.1858 H   0  0  0  0  0  0  0  0  0  0  0  0
   -1.1145   -2.2992   -0.7093 H   0  0  0  0  0  0  0  0  0  0  0  0
   -1.7407   -1.8653    0.9198 H   0  0  0  0  0  0  0  0  0  0  0  0
   -3.7093   -0.9107    2.0776 H   0  0  0  0  0  0  0  0  0  0  0  0
   -2.9596    0.6204    1.4360 H   0  0  0  0  0  0  0  0  0  0  0  0
   -5.4525    0.5051    2.7491 H   0  0  0  0  0  0  0  0  0  0  0  0
   -4.9447    1.7958    1.5816 H   0  0  0  0  0  0  0  0  0  0  0  0
   -6.7439   -0.5969    1.1336 H   0  0  0  0  0  0  0  0  0  0  0  0
   -6.8527    1.0547    0.4148 H   0  0  0  0  0  0  0  0  0  0  0  0
   -5.8068   -1.2406   -0.8775 H   0  0  0  0  0  0  0  0  0  0  0  0
    1.3181   -1.1768   -1.2048 H   0  0  0  0  0  0  0  0  0  0  0  0
    1.2961   -2.2914    0.2135 H   0  0  0  0  0  0  0  0  0  0  0  0
    3.1743   -1.3224    1.1892 H   0  0  0  0  0  0  0  0  0  0  0  0
    3.3611   -0.4699   -1.7398 H   0  0  0  0  0  0  0  0  0  0  0  0
    4.5186   -1.4183   -0.7330 H   0  0  0  0  0  0  0  0  0  0  0  0
   -0.6878    0.0000    0.0000 H   0  0  0  0  0  0  0  0  0  0  0  0
  1  2  1  0
  2  3  1  0
  3  4  1  0
  4  5  1  0
  5  6  1  0
  6  7  1  0
  7  8  1  0
  8  9  1  0
  9 10  1  0
 10 11  2  0
 10 12  1  0
 12 13  1  0
 13 14  1  0
 14 15  1  0
 15 16  1  0
 16 17  1  0
 17 18  3  0
  7 19  1  0
 19 20  1  0
 20 21  1  0
 21  3  1  0
 20  5  1  0
 16 12  1  0
  1 23  1  0
  1 24  1  0
  1 25  1  0
  3 26  1  6
  4 27  1  0
  4 28  1  0
  5 29  1  1
  6 30  1  0
  6 31  1  0
  7 32  1  1
  8 33  1  0
  9 34  1  0
  9 35  1  0
 13 36  1  0
 13 37  1  0
 14 38  1  0
 14 39  1  0
 15 40  1  0
 15 41  1  0
 16 42  1  6
 19 43  1  0
 19 44  1  0
 20 45  1  1
 21 46  1  0
 21 47  1  0
 22 48  1  0
M  END
$$$$
