
     RDKit          3D

 35 36  0  0  0  0  0  0  0  0999 V2000
   -5.8851    0.6446    0.1964 C   0  0  0  0  0  0  0  0  0  0  0  0
   -5.3910   -0.1445   -0.8460 C   0  0  0  0  0  0  0  0  0  0  0  0
   -4.0534   -0.5525   -0.8431 C   0  0  0  0  0  0  0  0  0  0  0  0
   -3.2031   -0.1818    0.2121 C   0  0  0  0  0  0  0  0  0  0  0  0
   -1.7559   -0.5879    0.1963 C   0  0  0  0  0  0  0  0  0  0  0  0
   -0.9804    0.3999   -0.5644 N   0  0  0  0  0  0  0  0  0  0  0  0
    0.3724   -0.0778   -0.8928 C   0  0  0  0  0  0  0  0  0  0  0  0
    1.3175   -0.0554    0.3225 C   0  0  0  0  0  0  0  0  0  0  0  0
    2.6684   -0.5134   -0.0594 N   0  0  0  0  0  0  0  0  0  0  0  0
    3.4979   -0.7675    1.1205 C   0  0  0  0  0  0  0  0  0  0  0  0
    4.9391   -0.6289    0.6707 C   0  0  0  0  0  0  0  0  0  0  0  0
    4.8889    0.3091   -0.5221 C   0  0  0  0  0  0  0  0  0  0  0  0
    3.4096    0.4803   -0.8490 C   0  0  0  0  0  0  0  0  0  0  0  0
   -3.7028    0.6251    1.2481 C   0  0  0  0  0  0  0  0  0  0  0  0
   -5.0411    1.0310    1.2413 C   0  0  0  0  0  0  0  0  0  0  0  0
   -6.9202    0.9608    0.1919 H   0  0  0  0  0  0  0  0  0  0  0  0
   -6.0436   -0.4369   -1.6584 H   0  0  0  0  0  0  0  0  0  0  0  0
   -3.6804   -1.1557   -1.6617 H   0  0  0  0  0  0  0  0  0  0  0  0
   -1.6689   -1.5968   -0.2654 H   0  0  0  0  0  0  0  0  0  0  0  0
   -1.3782   -0.6606    1.2398 H   0  0  0  0  0  0  0  0  0  0  0  0
   -0.9128    1.2854   -0.0087 H   0  0  0  0  0  0  0  0  0  0  0  0
    0.7814    0.5871   -1.6823 H   0  0  0  0  0  0  0  0  0  0  0  0
    0.3333   -1.1021   -1.3251 H   0  0  0  0  0  0  0  0  0  0  0  0
    0.9105   -0.7440    1.0941 H   0  0  0  0  0  0  0  0  0  0  0  0
    1.3499    0.9656    0.7663 H   0  0  0  0  0  0  0  0  0  0  0  0
    3.3053   -1.7898    1.5118 H   0  0  0  0  0  0  0  0  0  0  0  0
    3.2971   -0.0221    1.9257 H   0  0  0  0  0  0  0  0  0  0  0  0
    5.5780   -0.2216    1.4845 H   0  0  0  0  0  0  0  0  0  0  0  0
    5.3316   -1.6211    0.3558 H   0  0  0  0  0  0  0  0  0  0  0  0
    5.4341   -0.1325   -1.3852 H   0  0  0  0  0  0  0  0  0  0  0  0
    5.3468    1.2902   -0.2676 H   0  0  0  0  0  0  0  0  0  0  0  0
    3.1007    1.5219   -0.6016 H   0  0  0  0  0  0  0  0  0  0  0  0
    3.2341    0.3036   -1.9320 H   0  0  0  0  0  0  0  0  0  0  0  0
   -3.0570    0.9399    2.0586 H   0  0  0  0  0  0  0  0  0  0  0  0
   -5.4228    1.6484    2.0442 H   0  0  0  0  0  0  0  0  0  0  0  0
  1  2  2  0
  2  3  1  0
  3  4  2  0
  4  5  1  0
  5  6  1  0
  6  7  1  0
  7  8  1  0
  8  9  1  0
  9 10  1  0
 10 11  1  0
 11 12  1  0
 12 13  1  0
  4 14  1  0
 14 15  2  0
 15  1  1  0
 13  9  1  0
  1 16  1  0
  2 17  1  0
  3 18  1  0
  5 19  1  0
  5 20  1  0
  6 21  1  0
  7 22  1  0
  7 23  1  0
  8 24  1  0
  8 25  1  0
 10 26  1  0
 10 27  1  0
 11 28  1  0
 11 29  1  0
 12 30  1  0
 12 31  1  0
 13 32  1  0
 13 33  1  0
 14 34  1  0
 15 35  1  0
M  END
$$$$
