
     RDKit          3D

 53 56  0  0  0  0  0  0  0  0999 V2000
    8.2230    0.6667   -2.9808 C   0  0  0  0  0  0  0  0  0  0  0  0
    7.3329    1.0536   -1.8484 C   0  0  0  0  0  0  0  0  0  0  0  0
    7.6385    2.1035   -1.0356 N   0  0  0  0  0  0  0  0  0  0  0  0
    6.4188    2.1356    0.0914 S   0  0  0  0  0  0  0  0  0  0  0  0
    5.5699    0.8216   -0.4667 C   0  0  0  0  0  0  0  0  0  0  0  0
    4.2723    0.2996    0.0807 C   0  0  0  0  0  0  0  0  0  0  0  0
    4.3433   -1.2232    0.2903 C   0  0  0  0  0  0  0  0  0  0  0  0
    3.0478   -1.7247    0.9458 C   0  0  0  0  0  0  0  0  0  0  0  0
    1.8604   -1.0823    0.3622 N   0  0  0  0  0  0  0  0  0  0  0  0
    0.5813   -1.2854    0.9926 C   0  0  0  0  0  0  0  0  0  0  0  0
    0.3468   -2.3797    1.5762 O   0  0  0  0  0  0  0  0  0  0  0  0
   -0.4886   -0.2146    0.9675 C   0  0  2  0  0  0  0  0  0  0  0  0
   -1.1829   -0.0224    2.3269 C   0  0  0  0  0  0  0  0  0  0  0  0
   -2.6242   -0.2050    2.1383 N   0  0  0  0  0  0  0  0  0  0  0  0
   -2.8574   -0.0405    0.7037 C   0  0  2  0  0  0  0  0  0  0  0  0
   -4.1433   -0.7169    0.2711 C   0  0  0  0  0  0  0  0  0  0  0  0
   -4.1141   -1.9023   -0.1601 O   0  0  0  0  0  0  0  0  0  0  0  0
   -5.4119   -0.0516    0.4105 N   0  0  0  0  0  0  0  0  0  0  0  0
   -5.5909    1.2617    1.0070 C   0  0  0  0  0  0  0  0  0  0  0  0
   -7.0965    1.4530    1.1328 C   0  0  0  0  0  0  0  0  0  0  0  0
   -7.7278    0.4156    0.2082 C   0  0  0  0  0  0  0  0  0  0  0  0
   -6.6669   -0.6569    0.0002 C   0  0  0  0  0  0  0  0  0  0  0  0
   -1.6098   -0.5552   -0.0034 C   0  0  0  0  0  0  0  0  0  0  0  0
    1.9859   -0.3639   -0.9140 C   0  0  0  0  0  0  0  0  0  0  0  0
    3.0856    0.7079   -0.8313 C   0  0  0  0  0  0  0  0  0  0  0  0
    6.2050    0.3343   -1.5540 N   0  0  0  0  0  0  0  0  0  0  0  0
    8.9882   -0.0515   -2.6201 H   0  0  0  0  0  0  0  0  0  0  0  0
    8.7296    1.5652   -3.3919 H   0  0  0  0  0  0  0  0  0  0  0  0
    7.6273    0.1913   -3.7883 H   0  0  0  0  0  0  0  0  0  0  0  0
    4.1152    0.7639    1.0807 H   0  0  0  0  0  0  0  0  0  0  0  0
    5.2061   -1.4808    0.9432 H   0  0  0  0  0  0  0  0  0  0  0  0
    4.4868   -1.7357   -0.6869 H   0  0  0  0  0  0  0  0  0  0  0  0
    2.9745   -2.8275    0.8305 H   0  0  0  0  0  0  0  0  0  0  0  0
    3.0892   -1.4888    2.0321 H   0  0  0  0  0  0  0  0  0  0  0  0
   -0.0370    0.7606    0.6790 H   0  0  0  0  0  0  0  0  0  0  0  0
   -1.0019    1.0107    2.6963 H   0  0  0  0  0  0  0  0  0  0  0  0
   -0.8027   -0.7171    3.1096 H   0  0  0  0  0  0  0  0  0  0  0  0
   -2.8507   -1.1938    2.4044 H   0  0  0  0  0  0  0  0  0  0  0  0
   -2.9377    1.0476    0.4852 H   0  0  0  0  0  0  0  0  0  0  0  0
   -5.1577    2.0377    0.3395 H   0  0  0  0  0  0  0  0  0  0  0  0
   -5.1096    1.3058    2.0080 H   0  0  0  0  0  0  0  0  0  0  0  0
   -7.3994    2.4846    0.8502 H   0  0  0  0  0  0  0  0  0  0  0  0
   -7.4113    1.2544    2.1810 H   0  0  0  0  0  0  0  0  0  0  0  0
   -8.6540   -0.0109    0.6510 H   0  0  0  0  0  0  0  0  0  0  0  0
   -7.9742    0.8904   -0.7671 H   0  0  0  0  0  0  0  0  0  0  0  0
   -6.6210   -0.9596   -1.0686 H   0  0  0  0  0  0  0  0  0  0  0  0
   -6.8788   -1.5434    0.6366 H   0  0  0  0  0  0  0  0  0  0  0  0
   -1.6669   -1.6555   -0.1595 H   0  0  0  0  0  0  0  0  0  0  0  0
   -1.4681   -0.0538   -0.9856 H   0  0  0  0  0  0  0  0  0  0  0  0
    2.2514   -1.0976   -1.7060 H   0  0  0  0  0  0  0  0  0  0  0  0
    1.0317    0.1053   -1.2285 H   0  0  0  0  0  0  0  0  0  0  0  0
    3.4315    0.9210   -1.8673 H   0  0  0  0  0  0  0  0  0  0  0  0
    2.6424    1.6491   -0.4383 H   0  0  0  0  0  0  0  0  0  0  0  0
  1  2  1  0
  2  3  2  0
  3  4  1  0
  4  5  1  0
  5  6  1  0
  6  7  1  0
  7  8  1  0
  8  9  1  0
  9 10  1  0
 10 11  2  0
 10 12  1  0
 12 13  1  0
 13 14  1  0
 14 15  1  0
 15 16  1  0
 16 17  2  0
 16 18  1  0
 18 19  1  0
 19 20  1  0
 20 21  1  0
 21 22  1  0
 15 23  1  0
  9 24  1  0
 24 25  1  0
  5 26  2  0
 26  2  1  0
 25  6  1  0
 23 12  1  0
 22 18  1  0
  1 27  1  0
  1 28  1  0
  1 29  1  0
  6 30  1  0
  7 31  1  0
  7 32  1  0
  8 33  1  0
  8 34  1  0
 12 35  1  6
 13 36  1  0
 13 37  1  0
 14 38  1  0
 15 39  1  1
 19 40  1  0
 19 41  1  0
 20 42  1  0
 20 43  1  0
 21 44  1  0
 21 45  1  0
 22 46  1  0
 22 47  1  0
 23 48  1  0
 23 49  1  0
 24 50  1  0
 24 51  1  0
 25 52  1  0
 25 53  1  0
M  END
$$$$
