
     RDKit          3D

 53 56  0  0  0  0  0  0  0  0999 V2000
   -2.1550   -3.9798   -0.7914 C   0  0  0  0  0  0  0  0  0  0  0  0
   -2.1191   -2.6206   -0.0811 C   0  0  0  0  0  0  0  0  0  0  0  0
   -3.2753   -2.4590    0.9144 C   0  0  0  0  0  0  0  0  0  0  0  0
   -2.0939   -1.4854   -1.0691 C   0  0  0  0  0  0  0  0  0  0  0  0
   -3.0152   -1.2618   -1.8996 O   0  0  0  0  0  0  0  0  0  0  0  0
   -0.9309   -0.6563   -0.9595 N   0  0  0  0  0  0  0  0  0  0  0  0
   -0.9766    0.7857   -1.2272 C   0  0  0  0  0  0  0  0  0  0  0  0
   -1.8538    1.4886   -0.2109 C   0  0  0  0  0  0  0  0  0  0  0  0
   -1.3631    1.6680    1.0950 C   0  0  0  0  0  0  0  0  0  0  0  0
   -2.1507    2.2732    2.0759 C   0  0  0  0  0  0  0  0  0  0  0  0
   -3.4398    2.7069    1.7688 C   0  0  0  0  0  0  0  0  0  0  0  0
   -3.9454    2.5378    0.4788 C   0  0  0  0  0  0  0  0  0  0  0  0
   -3.1651    1.9309   -0.5159 C   0  0  0  0  0  0  0  0  0  0  0  0
   -3.7329    1.7840   -1.8345 C   0  0  0  0  0  0  0  0  0  0  0  0
   -4.1892    1.6671   -2.8916 N   0  0  0  0  0  0  0  0  0  0  0  0
   -0.1463   -1.2959    0.0508 C   0  0  0  0  0  0  0  0  0  0  0  0
    1.1503   -0.9724    0.4895 C   0  0  0  0  0  0  0  0  0  0  0  0
    1.9505    0.0254   -0.1597 N   0  0  0  0  0  0  0  0  0  0  0  0
    2.4319   -0.2282   -1.5253 C   0  0  0  0  0  0  0  0  0  0  0  0
    3.1641    0.9938   -2.0900 C   0  0  0  0  0  0  0  0  0  0  0  0
    4.2918    1.4736   -1.1575 C   0  0  0  0  0  0  0  0  0  0  0  0
    3.9534    1.3474    0.3548 C   0  0  1  0  0  0  0  0  0  0  0  0
    4.4603    2.4915    1.1149 N   0  0  0  0  0  0  0  0  0  0  0  0
    2.4476    1.1798    0.6001 C   0  0  0  0  0  0  0  0  0  0  0  0
    1.7026   -1.7425    1.5294 C   0  0  0  0  0  0  0  0  0  0  0  0
    0.9763   -2.8177    2.0695 C   0  0  0  0  0  0  0  0  0  0  0  0
   -0.2548   -3.1336    1.5787 N   0  0  0  0  0  0  0  0  0  0  0  0
   -0.7997   -2.3885    0.5831 C   0  0  0  0  0  0  0  0  0  0  0  0
   -2.0807   -4.8041   -0.0500 H   0  0  0  0  0  0  0  0  0  0  0  0
   -3.1062   -4.0956   -1.3539 H   0  0  0  0  0  0  0  0  0  0  0  0
   -1.3088   -4.0714   -1.5068 H   0  0  0  0  0  0  0  0  0  0  0  0
   -3.2291   -1.4650    1.4116 H   0  0  0  0  0  0  0  0  0  0  0  0
   -4.2507   -2.5441    0.3891 H   0  0  0  0  0  0  0  0  0  0  0  0
   -3.2244   -3.2472    1.6959 H   0  0  0  0  0  0  0  0  0  0  0  0
    0.0351    1.2279   -1.1988 H   0  0  0  0  0  0  0  0  0  0  0  0
   -1.3366    0.9495   -2.2636 H   0  0  0  0  0  0  0  0  0  0  0  0
   -0.3693    1.3343    1.3585 H   0  0  0  0  0  0  0  0  0  0  0  0
   -1.7609    2.4037    3.0772 H   0  0  0  0  0  0  0  0  0  0  0  0
   -4.0486    3.1751    2.5314 H   0  0  0  0  0  0  0  0  0  0  0  0
   -4.9489    2.8810    0.2561 H   0  0  0  0  0  0  0  0  0  0  0  0
    1.5774   -0.4717   -2.1919 H   0  0  0  0  0  0  0  0  0  0  0  0
    3.1208   -1.1006   -1.5143 H   0  0  0  0  0  0  0  0  0  0  0  0
    3.5847    0.7483   -3.0890 H   0  0  0  0  0  0  0  0  0  0  0  0
    2.4297    1.8175   -2.2283 H   0  0  0  0  0  0  0  0  0  0  0  0
    4.5275    2.5276   -1.4220 H   0  0  0  0  0  0  0  0  0  0  0  0
    5.2083    0.8793   -1.3666 H   0  0  0  0  0  0  0  0  0  0  0  0
    4.4488    0.4290    0.7440 H   0  0  0  0  0  0  0  0  0  0  0  0
    4.0403    3.3721    0.7363 H   0  0  0  0  0  0  0  0  0  0  0  0
    5.4953    2.5521    0.9754 H   0  0  0  0  0  0  0  0  0  0  0  0
    2.2625    1.0457    1.6889 H   0  0  0  0  0  0  0  0  0  0  0  0
    1.9049    2.0935    0.2744 H   0  0  0  0  0  0  0  0  0  0  0  0
    2.7004   -1.5333    1.8940 H   0  0  0  0  0  0  0  0  0  0  0  0
    1.4065   -3.4154    2.8618 H   0  0  0  0  0  0  0  0  0  0  0  0
  1  2  1  0
  2  3  1  0
  2  4  1  0
  4  5  2  0
  4  6  1  0
  6  7  1  0
  7  8  1  0
  8  9  2  0
  9 10  1  0
 10 11  2  0
 11 12  1  0
 12 13  2  0
 13 14  1  0
 14 15  3  0
  6 16  1  0
 16 17  2  0
 17 18  1  0
 18 19  1  0
 19 20  1  0
 20 21  1  0
 21 22  1  0
 22 23  1  0
 22 24  1  0
 17 25  1  0
 25 26  2  0
 26 27  1  0
 27 28  2  0
 28  2  1  0
 13  8  1  0
 28 16  1  0
 24 18  1  0
  1 29  1  0
  1 30  1  0
  1 31  1  0
  3 32  1  0
  3 33  1  0
  3 34  1  0
  7 35  1  0
  7 36  1  0
  9 37  1  0
 10 38  1  0
 11 39  1  0
 12 40  1  0
 19 41  1  0
 19 42  1  0
 20 43  1  0
 20 44  1  0
 21 45  1  0
 21 46  1  0
 22 47  1  1
 23 48  1  0
 23 49  1  0
 24 50  1  0
 24 51  1  0
 25 52  1  0
 26 53  1  0
M  END
$$$$
