
     RDKit          3D

 53 57  0  0  0  0  0  0  0  0999 V2000
   -3.6064   -1.1307   -2.1343 N   0  0  0  0  0  0  0  0  0  0  0  0
   -3.0732   -0.7995   -0.8108 C   0  0  1  0  0  0  0  0  0  0  0  0
   -1.5548   -0.6010   -0.8918 C   0  0  0  0  0  0  0  0  0  0  0  0
   -0.9450   -0.1907    0.4783 C   0  0  1  0  0  0  0  0  0  0  0  0
    0.1316    0.8204    0.2969 N   0  0  0  0  0  0  0  0  0  0  0  0
    0.8227    1.1743    1.5685 C   0  0  0  0  0  0  0  0  0  0  0  0
    2.2482    1.2828    1.2070 C   0  0  0  0  0  0  0  0  0  0  0  0
    3.3178    1.0168    1.9784 N   0  0  0  0  0  0  0  0  0  0  0  0
    4.2340    0.4084    1.2365 N   0  0  0  0  0  0  0  0  0  0  0  0
    3.7176    0.2809   -0.0061 C   0  0  0  0  0  0  0  0  0  0  0  0
    4.2881   -0.5328   -1.0335 N   0  0  0  0  0  0  0  0  0  0  0  0
    5.8313   -1.2912   -0.8361 S   0  0  0  0  0  0  0  0  0  0  0  0
    5.7974   -2.1855    0.3708 O   0  0  0  0  0  0  0  0  0  0  0  0
    6.1216   -2.1275   -2.0518 O   0  0  0  0  0  0  0  0  0  0  0  0
    7.0832   -0.0283   -0.6120 C   0  0  0  0  0  0  0  0  0  0  0  0
    8.4616   -0.3786   -1.1465 C   0  0  0  0  0  0  0  0  0  0  0  0
    7.5785    0.6036   -1.9017 C   0  0  0  0  0  0  0  0  0  0  0  0
    2.4579    0.8415   -0.0374 C   0  0  0  0  0  0  0  0  0  0  0  0
    1.1985    0.3658   -0.6394 C   0  0  0  0  0  0  0  0  0  0  0  0
   -2.0637    0.3347    1.4201 C   0  0  0  0  0  0  0  0  0  0  0  0
   -2.9693    1.1850    0.7421 O   0  0  0  0  0  0  0  0  0  0  0  0
   -3.7057    0.5234   -0.2855 C   0  0  2  0  0  0  0  0  0  0  0  0
   -5.1560    0.3516    0.1375 C   0  0  0  0  0  0  0  0  0  0  0  0
   -5.5039   -0.5363    1.1749 C   0  0  0  0  0  0  0  0  0  0  0  0
   -6.8370   -0.6841    1.5687 C   0  0  0  0  0  0  0  0  0  0  0  0
   -7.1570   -1.5461    2.5652 F   0  0  0  0  0  0  0  0  0  0  0  0
   -7.8396    0.0535    0.9379 C   0  0  0  0  0  0  0  0  0  0  0  0
   -7.5116    0.9412   -0.0877 C   0  0  0  0  0  0  0  0  0  0  0  0
   -6.1805    1.0954   -0.4884 C   0  0  0  0  0  0  0  0  0  0  0  0
   -5.8994    1.9712   -1.4867 F   0  0  0  0  0  0  0  0  0  0  0  0
   -3.1795   -2.0340   -2.4446 H   0  0  0  0  0  0  0  0  0  0  0  0
   -4.6310   -1.3174   -2.0392 H   0  0  0  0  0  0  0  0  0  0  0  0
   -3.2818   -1.6441   -0.1157 H   0  0  0  0  0  0  0  0  0  0  0  0
   -1.3525    0.1857   -1.6528 H   0  0  0  0  0  0  0  0  0  0  0  0
   -1.0746   -1.5399   -1.2450 H   0  0  0  0  0  0  0  0  0  0  0  0
   -0.5163   -1.1047    0.9515 H   0  0  0  0  0  0  0  0  0  0  0  0
    0.7070    0.3847    2.3451 H   0  0  0  0  0  0  0  0  0  0  0  0
    0.4532    2.1497    1.9484 H   0  0  0  0  0  0  0  0  0  0  0  0
    3.3737    1.1131    3.0163 H   0  0  0  0  0  0  0  0  0  0  0  0
    3.7804   -0.6532   -1.9380 H   0  0  0  0  0  0  0  0  0  0  0  0
    7.0557    0.6430    0.2720 H   0  0  0  0  0  0  0  0  0  0  0  0
    8.5656   -1.3672   -1.6410 H   0  0  0  0  0  0  0  0  0  0  0  0
    9.3011    0.1013   -0.6007 H   0  0  0  0  0  0  0  0  0  0  0  0
    7.8969    1.6627   -1.8017 H   0  0  0  0  0  0  0  0  0  0  0  0
    7.1537    0.1981   -2.8443 H   0  0  0  0  0  0  0  0  0  0  0  0
    1.2356   -0.7437   -0.7275 H   0  0  0  0  0  0  0  0  0  0  0  0
    1.0577    0.8278   -1.6387 H   0  0  0  0  0  0  0  0  0  0  0  0
   -2.5985   -0.5216    1.8810 H   0  0  0  0  0  0  0  0  0  0  0  0
   -1.6434    0.8936    2.2788 H   0  0  0  0  0  0  0  0  0  0  0  0
   -3.6736    1.2208   -1.1505 H   0  0  0  0  0  0  0  0  0  0  0  0
   -4.7521   -1.1246    1.6790 H   0  0  0  0  0  0  0  0  0  0  0  0
   -8.8717   -0.0614    1.2435 H   0  0  0  0  0  0  0  0  0  0  0  0
   -8.2921    1.5130   -0.5731 H   0  0  0  0  0  0  0  0  0  0  0  0
  1  2  1  0
  2  3  1  0
  3  4  1  0
  4  5  1  0
  5  6  1  0
  6  7  1  0
  7  8  1  0
  8  9  1  0
  9 10  2  0
 10 11  1  0
 11 12  1  0
 12 13  2  0
 12 14  2  0
 12 15  1  0
 15 16  1  0
 16 17  1  0
 10 18  1  0
 18 19  1  0
  4 20  1  0
 20 21  1  0
 21 22  1  0
 22 23  1  0
 23 24  2  0
 24 25  1  0
 25 26  1  0
 25 27  2  0
 27 28  1  0
 28 29  2  0
 29 30  1  0
 22  2  1  0
 29 23  1  0
 19  5  1  0
 18  7  2  0
 17 15  1  0
  1 31  1  0
  1 32  1  0
  2 33  1  1
  3 34  1  0
  3 35  1  0
  4 36  1  1
  6 37  1  0
  6 38  1  0
  8 39  1  0
 11 40  1  0
 15 41  1  0
 16 42  1  0
 16 43  1  0
 17 44  1  0
 17 45  1  0
 19 46  1  0
 19 47  1  0
 20 48  1  0
 20 49  1  0
 22 50  1  6
 24 51  1  0
 27 52  1  0
 28 53  1  0
M  END
$$$$
