
     RDKit          3D

 90 95  0  0  0  0  0  0  0  0999 V2000
    1.6142   -5.0179    0.4836 C   0  0  0  0  0  0  0  0  0  0  0  0
    0.5886   -4.1408    1.0478 C   0  0  0  0  0  0  0  0  0  0  0  0
   -0.2487   -3.4095    1.5137 C   0  0  0  0  0  0  0  0  0  0  0  0
   -1.2485   -2.4987    2.0820 C   0  0  0  0  0  0  0  0  0  0  0  0
   -1.1081   -1.1683    1.4852 N   0  0  0  0  0  0  0  0  0  0  0  0
   -1.9219   -0.5648    0.5772 C   0  0  0  0  0  0  0  0  0  0  0  0
   -3.0960   -1.1761    0.0259 N   0  0  0  0  0  0  0  0  0  0  0  0
   -2.9692   -2.3649   -0.8249 C   0  0  0  0  0  0  0  0  0  0  0  0
   -4.0988   -3.3714   -0.5435 C   0  0  0  0  0  0  0  0  0  0  0  0
   -5.4182   -2.7103   -0.0940 C   0  0  0  0  0  0  0  0  0  0  0  0
   -5.5180   -1.2434   -0.5460 C   0  0  0  0  0  0  0  0  0  0  0  0
   -6.8080   -0.6696   -0.1494 N   0  0  0  0  0  0  0  0  0  0  0  0
   -7.2970    0.5651   -0.6854 C   0  0  0  0  0  0  0  0  0  0  0  0
   -6.6292    1.1841   -1.5575 O   0  0  0  0  0  0  0  0  0  0  0  0
   -8.5257    1.0635   -0.2271 O   0  0  0  0  0  0  0  0  0  0  0  0
   -9.1573    2.2831   -0.6451 C   0  0  0  0  0  0  0  0  0  0  0  0
  -10.4745    2.4034    0.1364 C   0  0  0  0  0  0  0  0  0  0  0  0
   -8.2684    3.4966   -0.3110 C   0  0  0  0  0  0  0  0  0  0  0  0
   -9.4753    2.2412   -2.1521 C   0  0  0  0  0  0  0  0  0  0  0  0
   -4.3627   -0.4350    0.0758 C   0  0  0  0  0  0  0  0  0  0  0  0
   -1.5146    0.6802    0.2184 N   0  0  0  0  0  0  0  0  0  0  0  0
   -0.3854    0.8372    0.9366 C   0  0  0  0  0  0  0  0  0  0  0  0
   -0.1375   -0.2579    1.6934 C   0  0  0  0  0  0  0  0  0  0  0  0
    1.0105   -0.3250    2.4734 C   0  0  0  0  0  0  0  0  0  0  0  0
    1.2441   -1.3400    3.1852 O   0  0  0  0  0  0  0  0  0  0  0  0
    1.8916    0.7323    2.4334 N   0  0  0  0  0  0  0  0  0  0  0  0
    3.1747    0.6330    3.1547 C   0  0  0  0  0  0  0  0  0  0  0  0
    4.1619   -0.1190    2.3181 C   0  0  0  0  0  0  0  0  0  0  0  0
    4.9632    0.5479    1.4501 N   0  0  0  0  0  0  0  0  0  0  0  0
    5.8162   -0.0980    0.6078 C   0  0  0  0  0  0  0  0  0  0  0  0
    6.6107    0.6844   -0.3036 N   0  0  0  0  0  0  0  0  0  0  0  0
    6.6848    2.1410   -0.1786 C   0  0  0  0  0  0  0  0  0  0  0  0
    7.6024    2.7198   -1.2218 C   0  0  0  0  0  0  0  0  0  0  0  0
    7.0975    3.1024   -2.4756 C   0  0  0  0  0  0  0  0  0  0  0  0
    7.9579    3.6042   -3.4573 C   0  0  0  0  0  0  0  0  0  0  0  0
    9.3269    3.7161   -3.1983 C   0  0  0  0  0  0  0  0  0  0  0  0
    9.8385    3.3219   -1.9588 C   0  0  0  0  0  0  0  0  0  0  0  0
    8.9815    2.8196   -0.9744 C   0  0  0  0  0  0  0  0  0  0  0  0
    5.8659   -1.5149    0.6369 C   0  0  0  0  0  0  0  0  0  0  0  0
    6.7334   -2.2853   -0.1675 C   0  0  0  0  0  0  0  0  0  0  0  0
    6.7088   -3.6819   -0.0957 C   0  0  0  0  0  0  0  0  0  0  0  0
    5.8328   -4.3287    0.7773 C   0  0  0  0  0  0  0  0  0  0  0  0
    4.9829   -3.5828    1.5942 C   0  0  0  0  0  0  0  0  0  0  0  0
    4.9991   -2.1850    1.5348 C   0  0  0  0  0  0  0  0  0  0  0  0
    4.1735   -1.4745    2.3424 N   0  0  0  0  0  0  0  0  0  0  0  0
    1.6233    1.8325    1.6341 C   0  0  0  0  0  0  0  0  0  0  0  0
    2.4605    2.7764    1.5632 O   0  0  0  0  0  0  0  0  0  0  0  0
    0.4582    1.9041    0.9014 N   0  0  0  0  0  0  0  0  0  0  0  0
    0.1802    3.0498    0.0251 C   0  0  0  0  0  0  0  0  0  0  0  0
    2.3650   -4.4068   -0.0588 H   0  0  0  0  0  0  0  0  0  0  0  0
    1.1426   -5.7349   -0.2194 H   0  0  0  0  0  0  0  0  0  0  0  0
    2.1151   -5.5756    1.3015 H   0  0  0  0  0  0  0  0  0  0  0  0
   -1.1087   -2.4357    3.1812 H   0  0  0  0  0  0  0  0  0  0  0  0
   -2.2637   -2.9061    1.9000 H   0  0  0  0  0  0  0  0  0  0  0  0
   -3.0190   -2.0447   -1.8884 H   0  0  0  0  0  0  0  0  0  0  0  0
   -1.9858   -2.8606   -0.6805 H   0  0  0  0  0  0  0  0  0  0  0  0
   -3.7690   -4.0837    0.2438 H   0  0  0  0  0  0  0  0  0  0  0  0
   -4.2792   -3.9656   -1.4657 H   0  0  0  0  0  0  0  0  0  0  0  0
   -6.2754   -3.2877   -0.5041 H   0  0  0  0  0  0  0  0  0  0  0  0
   -5.4862   -2.7535    1.0161 H   0  0  0  0  0  0  0  0  0  0  0  0
   -5.4372   -1.2165   -1.6562 H   0  0  0  0  0  0  0  0  0  0  0  0
   -7.4176   -1.1804    0.5292 H   0  0  0  0  0  0  0  0  0  0  0  0
  -10.2737    2.4229    1.2293 H   0  0  0  0  0  0  0  0  0  0  0  0
  -11.0193    3.3323   -0.1397 H   0  0  0  0  0  0  0  0  0  0  0  0
  -11.1304    1.5321   -0.0776 H   0  0  0  0  0  0  0  0  0  0  0  0
   -7.3415    3.4998   -0.9199 H   0  0  0  0  0  0  0  0  0  0  0  0
   -7.9811    3.4772    0.7621 H   0  0  0  0  0  0  0  0  0  0  0  0
   -8.8095    4.4455   -0.5163 H   0  0  0  0  0  0  0  0  0  0  0  0
   -8.5492    2.2456   -2.7621 H   0  0  0  0  0  0  0  0  0  0  0  0
  -10.0506    1.3227   -2.3968 H   0  0  0  0  0  0  0  0  0  0  0  0
  -10.0779    3.1267   -2.4489 H   0  0  0  0  0  0  0  0  0  0  0  0
   -4.2504    0.5310   -0.4618 H   0  0  0  0  0  0  0  0  0  0  0  0
   -4.6031   -0.2154    1.1395 H   0  0  0  0  0  0  0  0  0  0  0  0
    3.5784    1.6380    3.4052 H   0  0  0  0  0  0  0  0  0  0  0  0
    3.0381    0.1158    4.1298 H   0  0  0  0  0  0  0  0  0  0  0  0
    7.0929    0.2349   -1.1114 H   0  0  0  0  0  0  0  0  0  0  0  0
    5.6667    2.5753   -0.2861 H   0  0  0  0  0  0  0  0  0  0  0  0
    7.0574    2.4055    0.8352 H   0  0  0  0  0  0  0  0  0  0  0  0
    6.0404    3.0109   -2.6924 H   0  0  0  0  0  0  0  0  0  0  0  0
    7.5639    3.9026   -4.4202 H   0  0  0  0  0  0  0  0  0  0  0  0
    9.9916    4.1033   -3.9597 H   0  0  0  0  0  0  0  0  0  0  0  0
   10.8998    3.4017   -1.7621 H   0  0  0  0  0  0  0  0  0  0  0  0
    9.3915    2.5077   -0.0218 H   0  0  0  0  0  0  0  0  0  0  0  0
    7.4434   -1.8380   -0.8448 H   0  0  0  0  0  0  0  0  0  0  0  0
    7.3748   -4.2655   -0.7183 H   0  0  0  0  0  0  0  0  0  0  0  0
    5.8178   -5.4098    0.8260 H   0  0  0  0  0  0  0  0  0  0  0  0
    4.3118   -4.0927    2.2746 H   0  0  0  0  0  0  0  0  0  0  0  0
   -0.9096    3.1578   -0.1625 H   0  0  0  0  0  0  0  0  0  0  0  0
    0.5233    3.9961    0.4953 H   0  0  0  0  0  0  0  0  0  0  0  0
    0.7032    2.9118   -0.9445 H   0  0  0  0  0  0  0  0  0  0  0  0
  1  2  1  0
  2  3  3  0
  3  4  1  0
  4  5  1  0
  5  6  1  0
  6  7  1  0
  7  8  1  0
  8  9  1  0
  9 10  1  0
 10 11  1  0
 11 12  1  0
 12 13  1  0
 13 14  2  0
 13 15  1  0
 15 16  1  0
 16 17  1  0
 16 18  1  0
 16 19  1  0
 11 20  1  0
  6 21  2  0
 21 22  1  0
 22 23  2  0
 23 24  1  0
 24 25  2  0
 24 26  1  0
 26 27  1  0
 27 28  1  0
 28 29  2  0
 29 30  1  0
 30 31  1  0
 31 32  1  0
 32 33  1  0
 33 34  2  0
 34 35  1  0
 35 36  2  0
 36 37  1  0
 37 38  2  0
 30 39  2  0
 39 40  1  0
 40 41  2  0
 41 42  1  0
 42 43  2  0
 43 44  1  0
 44 45  2  0
 26 46  1  0
 46 47  2  0
 46 48  1  0
 48 49  1  0
 23  5  1  0
 45 28  1  0
 20  7  1  0
 48 22  1  0
 38 33  1  0
 44 39  1  0
  1 50  1  0
  1 51  1  0
  1 52  1  0
  4 53  1  0
  4 54  1  0
  8 55  1  0
  8 56  1  0
  9 57  1  0
  9 58  1  0
 10 59  1  0
 10 60  1  0
 11 61  1  0
 12 62  1  0
 17 63  1  0
 17 64  1  0
 17 65  1  0
 18 66  1  0
 18 67  1  0
 18 68  1  0
 19 69  1  0
 19 70  1  0
 19 71  1  0
 20 72  1  0
 20 73  1  0
 27 74  1  0
 27 75  1  0
 31 76  1  0
 32 77  1  0
 32 78  1  0
 34 79  1  0
 35 80  1  0
 36 81  1  0
 37 82  1  0
 38 83  1  0
 40 84  1  0
 41 85  1  0
 42 86  1  0
 43 87  1  0
 49 88  1  0
 49 89  1  0
 49 90  1  0
M  END
$$$$
