
     RDKit          3D

 58 62  0  0  0  0  0  0  0  0999 V2000
   -3.3064   -2.0904   -0.6926 N   0  0  0  0  0  0  0  0  0  0  0  0
   -3.3251   -1.0668    0.3567 C   0  0  1  0  0  0  0  0  0  0  0  0
   -1.9054   -0.7677    0.8612 C   0  0  0  0  0  0  0  0  0  0  0  0
   -1.9156    0.3800    1.9076 C   0  0  1  0  0  0  0  0  0  0  0  0
   -0.7831    1.3318    1.7707 N   0  0  0  0  0  0  0  0  0  0  0  0
   -0.7310    2.0865    0.4875 C   0  0  0  0  0  0  0  0  0  0  0  0
    0.6593    1.9348    0.0220 C   0  0  0  0  0  0  0  0  0  0  0  0
    1.1786    1.7233   -1.2350 C   0  0  0  0  0  0  0  0  0  0  0  0
    2.2009    0.8542   -1.0939 N   0  0  0  0  0  0  0  0  0  0  0  0
    3.1028    0.1520   -2.3908 S   0  0  0  0  0  0  0  0  0  0  0  0
    2.3017   -0.9607   -3.0053 O   0  0  0  0  0  0  0  0  0  0  0  0
    3.3971    1.1927   -3.4344 O   0  0  0  0  0  0  0  0  0  0  0  0
    4.5945   -0.4826   -1.7811 N   0  0  0  0  0  0  0  0  0  0  0  0
    5.5136    0.3405   -1.0493 C   0  0  0  0  0  0  0  0  0  0  0  0
    5.3227    1.5863   -0.9950 O   0  0  0  0  0  0  0  0  0  0  0  0
    6.6932   -0.2449   -0.3680 C   0  0  0  0  0  0  0  0  0  0  0  0
    7.8133    0.5594   -0.0850 C   0  0  0  0  0  0  0  0  0  0  0  0
    8.9286    0.0195    0.5630 C   0  0  0  0  0  0  0  0  0  0  0  0
    8.9360   -1.3242    0.9425 C   0  0  0  0  0  0  0  0  0  0  0  0
    7.8262   -2.1296    0.6789 C   0  0  0  0  0  0  0  0  0  0  0  0
    6.7082   -1.5955    0.0302 C   0  0  0  0  0  0  0  0  0  0  0  0
    2.2835    0.4413    0.1638 N   0  0  0  0  0  0  0  0  0  0  0  0
    1.3656    1.1488    0.8475 C   0  0  0  0  0  0  0  0  0  0  0  0
    0.5460    0.6985    1.9875 C   0  0  0  0  0  0  0  0  0  0  0  0
   -3.2689    1.1269    1.9371 C   0  0  0  0  0  0  0  0  0  0  0  0
   -3.7699    1.4045    0.6407 O   0  0  0  0  0  0  0  0  0  0  0  0
   -3.9700    0.2452   -0.1708 C   0  0  2  0  0  0  0  0  0  0  0  0
   -5.4477    0.0499   -0.4552 C   0  0  0  0  0  0  0  0  0  0  0  0
   -6.3946    0.1299    0.5837 C   0  0  0  0  0  0  0  0  0  0  0  0
   -7.7525   -0.0800    0.3255 C   0  0  0  0  0  0  0  0  0  0  0  0
   -8.6547    0.0057    1.3339 F   0  0  0  0  0  0  0  0  0  0  0  0
   -8.1808   -0.3815   -0.9685 C   0  0  0  0  0  0  0  0  0  0  0  0
   -7.2521   -0.4779   -2.0062 C   0  0  0  0  0  0  0  0  0  0  0  0
   -5.8919   -0.2692   -1.7562 C   0  0  0  0  0  0  0  0  0  0  0  0
   -5.0125   -0.3841   -2.7839 F   0  0  0  0  0  0  0  0  0  0  0  0
   -2.9240   -2.9761   -0.2884 H   0  0  0  0  0  0  0  0  0  0  0  0
   -2.6605   -1.7943   -1.4607 H   0  0  0  0  0  0  0  0  0  0  0  0
   -3.9285   -1.4560    1.2083 H   0  0  0  0  0  0  0  0  0  0  0  0
   -1.2491   -0.5271   -0.0014 H   0  0  0  0  0  0  0  0  0  0  0  0
   -1.4881   -1.6870    1.3276 H   0  0  0  0  0  0  0  0  0  0  0  0
   -1.8254   -0.0944    2.9118 H   0  0  0  0  0  0  0  0  0  0  0  0
   -0.9476    3.1584    0.6762 H   0  0  0  0  0  0  0  0  0  0  0  0
   -1.4295    1.7020   -0.2824 H   0  0  0  0  0  0  0  0  0  0  0  0
    0.7513    2.0322   -2.1801 H   0  0  0  0  0  0  0  0  0  0  0  0
    4.8303   -1.4738   -2.0056 H   0  0  0  0  0  0  0  0  0  0  0  0
    7.8311    1.6030   -0.3739 H   0  0  0  0  0  0  0  0  0  0  0  0
    9.7878    0.6441    0.7710 H   0  0  0  0  0  0  0  0  0  0  0  0
    9.7995   -1.7400    1.4454 H   0  0  0  0  0  0  0  0  0  0  0  0
    7.8289   -3.1683    0.9837 H   0  0  0  0  0  0  0  0  0  0  0  0
    5.8525   -2.2364   -0.1337 H   0  0  0  0  0  0  0  0  0  0  0  0
    0.9869    1.0698    2.9358 H   0  0  0  0  0  0  0  0  0  0  0  0
    0.5031   -0.4123    2.0097 H   0  0  0  0  0  0  0  0  0  0  0  0
   -3.1451    2.0878    2.4802 H   0  0  0  0  0  0  0  0  0  0  0  0
   -4.0121    0.5410    2.5196 H   0  0  0  0  0  0  0  0  0  0  0  0
   -3.4630    0.4803   -1.1320 H   0  0  0  0  0  0  0  0  0  0  0  0
   -6.0892    0.3545    1.5950 H   0  0  0  0  0  0  0  0  0  0  0  0
   -9.2321   -0.5452   -1.1676 H   0  0  0  0  0  0  0  0  0  0  0  0
   -7.5872   -0.7189   -3.0069 H   0  0  0  0  0  0  0  0  0  0  0  0
  1  2  1  0
  2  3  1  0
  3  4  1  0
  4  5  1  0
  5  6  1  0
  6  7  1  0
  7  8  2  0
  8  9  1  0
  9 10  1  0
 10 11  2  0
 10 12  2  0
 10 13  1  0
 13 14  1  0
 14 15  2  0
 14 16  1  0
 16 17  2  0
 17 18  1  0
 18 19  2  0
 19 20  1  0
 20 21  2  0
  9 22  1  0
 22 23  2  0
 23 24  1  0
  4 25  1  0
 25 26  1  0
 26 27  1  0
 27 28  1  0
 28 29  2  0
 29 30  1  0
 30 31  1  0
 30 32  2  0
 32 33  1  0
 33 34  2  0
 34 35  1  0
 27  2  1  0
 34 28  1  0
 24  5  1  0
 23  7  1  0
 21 16  1  0
  1 36  1  0
  1 37  1  0
  2 38  1  1
  3 39  1  0
  3 40  1  0
  4 41  1  1
  6 42  1  0
  6 43  1  0
  8 44  1  0
 13 45  1  0
 17 46  1  0
 18 47  1  0
 19 48  1  0
 20 49  1  0
 21 50  1  0
 24 51  1  0
 24 52  1  0
 25 53  1  0
 25 54  1  0
 27 55  1  6
 29 56  1  0
 32 57  1  0
 33 58  1  0
M  END
$$$$
