
     RDKit          3D

 50 54  0  0  0  0  0  0  0  0999 V2000
    1.5609   -1.2500   -2.0600 O   0  0  0  0  0  0  0  0  0  0  0  0
    1.9866   -0.3807   -1.2508 C   0  0  0  0  0  0  0  0  0  0  0  0
    1.0712    0.7409   -0.8257 C   0  0  2  0  0  0  0  0  0  0  0  0
    0.2806    0.3679    0.4228 C   0  0  0  0  0  0  0  0  0  0  0  0
   -1.0242    1.1143    0.2466 C   0  0  2  0  0  0  0  0  0  0  0  0
   -2.1396    0.4529    0.9363 N   0  0  0  0  0  0  0  0  0  0  0  0
   -3.5069    0.8894    0.8051 C   0  0  0  0  0  0  0  0  0  0  0  0
   -3.8002    2.2647    0.7680 C   0  0  0  0  0  0  0  0  0  0  0  0
   -5.1183    2.7128    0.6902 C   0  0  0  0  0  0  0  0  0  0  0  0
   -6.1702    1.8007    0.6495 C   0  0  0  0  0  0  0  0  0  0  0  0
   -5.9116    0.4240    0.6737 C   0  0  0  0  0  0  0  0  0  0  0  0
   -6.9756   -0.4901    0.6174 C   0  0  0  0  0  0  0  0  0  0  0  0
   -6.7244   -1.8625    0.6157 C   0  0  0  0  0  0  0  0  0  0  0  0
   -5.4129   -2.3344    0.6615 C   0  0  0  0  0  0  0  0  0  0  0  0
   -4.3421   -1.4387    0.7205 C   0  0  0  0  0  0  0  0  0  0  0  0
   -4.5720   -0.0465    0.7447 C   0  0  0  0  0  0  0  0  0  0  0  0
   -1.2182    1.1301   -1.2640 C   0  0  0  0  0  0  0  0  0  0  0  0
    0.1044    1.0470   -1.8887 N   0  0  0  0  0  0  0  0  0  0  0  0
    3.3098   -0.5148   -0.7032 N   0  0  0  0  0  0  0  0  0  0  0  0
    3.9078    0.3983    0.2750 C   0  0  0  0  0  0  0  0  0  0  0  0
    5.2373   -0.2064    0.5281 C   0  0  0  0  0  0  0  0  0  0  0  0
    6.2377    0.2512    1.3874 C   0  0  0  0  0  0  0  0  0  0  0  0
    7.4328   -0.4812    1.4749 C   0  0  0  0  0  0  0  0  0  0  0  0
    7.6069   -1.6495    0.7080 C   0  0  0  0  0  0  0  0  0  0  0  0
    6.5866   -2.0911   -0.1502 C   0  0  0  0  0  0  0  0  0  0  0  0
    5.4075   -1.3474   -0.2212 C   0  0  0  0  0  0  0  0  0  0  0  0
    4.2071   -1.6199   -1.0473 C   0  0  0  0  0  0  0  0  0  0  0  0
    1.6725    1.6525   -0.6062 H   0  0  0  0  0  0  0  0  0  0  0  0
    0.0959   -0.7305    0.4535 H   0  0  0  0  0  0  0  0  0  0  0  0
    0.8041    0.6821    1.3518 H   0  0  0  0  0  0  0  0  0  0  0  0
   -0.8960    2.1524    0.6244 H   0  0  0  0  0  0  0  0  0  0  0  0
   -1.9354   -0.3637    1.5551 H   0  0  0  0  0  0  0  0  0  0  0  0
   -3.0103    3.0005    0.8238 H   0  0  0  0  0  0  0  0  0  0  0  0
   -5.3258    3.7750    0.6703 H   0  0  0  0  0  0  0  0  0  0  0  0
   -7.1869    2.1717    0.5933 H   0  0  0  0  0  0  0  0  0  0  0  0
   -8.0009   -0.1428    0.5689 H   0  0  0  0  0  0  0  0  0  0  0  0
   -7.5487   -2.5625    0.5692 H   0  0  0  0  0  0  0  0  0  0  0  0
   -5.2240   -3.4001    0.6453 H   0  0  0  0  0  0  0  0  0  0  0  0
   -3.3429   -1.8504    0.7275 H   0  0  0  0  0  0  0  0  0  0  0  0
   -1.7564    2.0519   -1.5800 H   0  0  0  0  0  0  0  0  0  0  0  0
   -1.8134    0.2478   -1.5866 H   0  0  0  0  0  0  0  0  0  0  0  0
    0.3408    1.9803   -2.3021 H   0  0  0  0  0  0  0  0  0  0  0  0
    3.3076    0.4188    1.2088 H   0  0  0  0  0  0  0  0  0  0  0  0
    4.0237    1.4140   -0.1589 H   0  0  0  0  0  0  0  0  0  0  0  0
    6.0965    1.1501    1.9734 H   0  0  0  0  0  0  0  0  0  0  0  0
    8.2230   -0.1462    2.1342 H   0  0  0  0  0  0  0  0  0  0  0  0
    8.5302   -2.2093    0.7801 H   0  0  0  0  0  0  0  0  0  0  0  0
    6.7127   -2.9881   -0.7425 H   0  0  0  0  0  0  0  0  0  0  0  0
    4.4611   -1.5915   -2.1284 H   0  0  0  0  0  0  0  0  0  0  0  0
    3.7518   -2.5929   -0.7641 H   0  0  0  0  0  0  0  0  0  0  0  0
  1  2  2  0
  2  3  1  0
  3  4  1  0
  4  5  1  0
  5  6  1  0
  6  7  1  0
  7  8  2  0
  8  9  1  0
  9 10  2  0
 10 11  1  0
 11 12  2  0
 12 13  1  0
 13 14  2  0
 14 15  1  0
 15 16  2  0
  5 17  1  0
 17 18  1  0
  2 19  1  0
 19 20  1  0
 20 21  1  0
 21 22  2  0
 22 23  1  0
 23 24  2  0
 24 25  1  0
 25 26  2  0
 26 27  1  0
 18  3  1  0
 27 19  1  0
 16  7  1  0
 26 21  1  0
 16 11  1  0
  3 28  1  1
  4 29  1  0
  4 30  1  0
  5 31  1  1
  6 32  1  0
  8 33  1  0
  9 34  1  0
 10 35  1  0
 12 36  1  0
 13 37  1  0
 14 38  1  0
 15 39  1  0
 17 40  1  0
 17 41  1  0
 18 42  1  0
 20 43  1  0
 20 44  1  0
 22 45  1  0
 23 46  1  0
 24 47  1  0
 25 48  1  0
 27 49  1  0
 27 50  1  0
M  END
$$$$
