
     RDKit          3D

 53 56  0  0  0  0  0  0  0  0999 V2000
   -6.8277    0.8800   -1.6847 C   0  0  0  0  0  0  0  0  0  0  0  0
   -6.1567    0.3869   -0.5296 O   0  0  0  0  0  0  0  0  0  0  0  0
   -4.7684    0.4481   -0.3283 C   0  0  0  0  0  0  0  0  0  0  0  0
   -3.9016    1.0224   -1.2745 C   0  0  0  0  0  0  0  0  0  0  0  0
   -2.5208    1.0532   -1.0430 C   0  0  0  0  0  0  0  0  0  0  0  0
   -1.9812    0.5114    0.1318 C   0  0  0  0  0  0  0  0  0  0  0  0
   -2.8560   -0.0313    1.0943 C   0  0  0  0  0  0  0  0  0  0  0  0
   -4.2446   -0.0786    0.8608 C   0  0  0  0  0  0  0  0  0  0  0  0
   -5.1385   -0.6345    1.7904 O   0  0  0  0  0  0  0  0  0  0  0  0
   -4.7575   -1.2082    3.0369 C   0  0  0  0  0  0  0  0  0  0  0  0
   -0.4802    0.6886    0.3647 C   0  0  1  0  0  0  0  0  0  0  0  0
    0.0778   -0.1477    1.5480 C   0  0  0  0  0  0  0  0  0  0  0  0
    1.6124   -0.1559    1.5166 C   0  0  1  0  0  0  0  0  0  0  0  0
    2.1327   -0.8704    2.6845 N   0  0  0  0  0  0  0  0  0  0  0  0
    2.1241   -0.8207    0.2085 C   0  0  2  0  0  0  0  0  0  0  0  0
    3.4354   -0.1969   -0.2168 C   0  0  0  0  0  0  0  0  0  0  0  0
    4.6503   -0.8695   -0.0117 C   0  0  0  0  0  0  0  0  0  0  0  0
    5.8530   -0.2618   -0.3975 C   0  0  0  0  0  0  0  0  0  0  0  0
    7.1621   -0.9514   -0.1520 C   0  0  0  0  0  0  0  0  0  0  0  0
    5.8244    1.0258   -0.9489 C   0  0  0  0  0  0  0  0  0  0  0  0
    4.5988    1.6690   -1.1284 C   0  0  0  0  0  0  0  0  0  0  0  0
    3.4453    1.0528   -0.7605 N   0  0  0  0  0  0  0  0  0  0  0  0
    1.0827   -0.7482   -0.9325 C   0  0  0  0  0  0  0  0  0  0  0  0
    0.3355    0.5245   -0.8852 N   0  0  0  0  0  0  0  0  0  0  0  0
   -0.3680    0.7558   -2.1733 C   0  0  0  0  0  0  0  0  0  0  0  0
   -1.5837    1.6705   -2.0337 C   0  0  0  0  0  0  0  0  0  0  0  0
   -7.9164    0.6967   -1.5772 H   0  0  0  0  0  0  0  0  0  0  0  0
   -6.4661    0.3507   -2.5916 H   0  0  0  0  0  0  0  0  0  0  0  0
   -6.6599    1.9730   -1.7864 H   0  0  0  0  0  0  0  0  0  0  0  0
   -4.2913    1.4457   -2.1905 H   0  0  0  0  0  0  0  0  0  0  0  0
   -2.4678   -0.4077    2.0274 H   0  0  0  0  0  0  0  0  0  0  0  0
   -4.0728   -2.0663    2.8692 H   0  0  0  0  0  0  0  0  0  0  0  0
   -5.6648   -1.5751    3.5591 H   0  0  0  0  0  0  0  0  0  0  0  0
   -4.2657   -0.4438    3.6748 H   0  0  0  0  0  0  0  0  0  0  0  0
   -0.3575    1.7506    0.6729 H   0  0  0  0  0  0  0  0  0  0  0  0
   -0.2689    0.2949    2.5080 H   0  0  0  0  0  0  0  0  0  0  0  0
   -0.2905   -1.1966    1.4931 H   0  0  0  0  0  0  0  0  0  0  0  0
    1.9517    0.9061    1.5665 H   0  0  0  0  0  0  0  0  0  0  0  0
    3.1769   -0.8107    2.6671 H   0  0  0  0  0  0  0  0  0  0  0  0
    1.8324   -0.3592    3.5464 H   0  0  0  0  0  0  0  0  0  0  0  0
    2.2881   -1.9057    0.4019 H   0  0  0  0  0  0  0  0  0  0  0  0
    4.6607   -1.8525    0.4442 H   0  0  0  0  0  0  0  0  0  0  0  0
    7.0441   -2.0533   -0.2296 H   0  0  0  0  0  0  0  0  0  0  0  0
    7.9193   -0.6338   -0.9001 H   0  0  0  0  0  0  0  0  0  0  0  0
    7.5282   -0.6969    0.8645 H   0  0  0  0  0  0  0  0  0  0  0  0
    6.7408    1.5275   -1.2342 H   0  0  0  0  0  0  0  0  0  0  0  0
    4.5648    2.6626   -1.5550 H   0  0  0  0  0  0  0  0  0  0  0  0
    0.3711   -1.6008   -0.8439 H   0  0  0  0  0  0  0  0  0  0  0  0
    1.6007   -0.8664   -1.9124 H   0  0  0  0  0  0  0  0  0  0  0  0
   -0.7142   -0.2067   -2.6181 H   0  0  0  0  0  0  0  0  0  0  0  0
    0.3439    1.2183   -2.8903 H   0  0  0  0  0  0  0  0  0  0  0  0
   -2.0688    1.7868   -3.0275 H   0  0  0  0  0  0  0  0  0  0  0  0
   -1.2675    2.6735   -1.6744 H   0  0  0  0  0  0  0  0  0  0  0  0
  1  2  1  0
  2  3  1  0
  3  4  2  0
  4  5  1  0
  5  6  2  0
  6  7  1  0
  7  8  2  0
  8  9  1  0
  9 10  1  0
  6 11  1  0
 11 12  1  0
 12 13  1  0
 13 14  1  0
 13 15  1  0
 15 16  1  0
 16 17  2  0
 17 18  1  0
 18 19  1  0
 18 20  2  0
 20 21  1  0
 21 22  2  0
 15 23  1  0
 23 24  1  0
 24 25  1  0
 25 26  1  0
  8  3  1  0
 24 11  1  0
 26  5  1  0
 22 16  1  0
  1 27  1  0
  1 28  1  0
  1 29  1  0
  4 30  1  0
  7 31  1  0
 10 32  1  0
 10 33  1  0
 10 34  1  0
 11 35  1  1
 12 36  1  0
 12 37  1  0
 13 38  1  1
 14 39  1  0
 14 40  1  0
 15 41  1  1
 17 42  1  0
 19 43  1  0
 19 44  1  0
 19 45  1  0
 20 46  1  0
 21 47  1  0
 23 48  1  0
 23 49  1  0
 25 50  1  0
 25 51  1  0
 26 52  1  0
 26 53  1  0
M  END
$$$$
