
     RDKit          3D

 42 44  0  0  0  0  0  0  0  0999 V2000
   -0.4088   -0.6894   -3.1076 C   0  0  0  0  0  0  0  0  0  0  0  0
   -0.6551   -0.6155   -1.5975 C   0  0  2  0  0  0  0  0  0  0  0  0
   -2.0522   -0.2636   -1.3214 N   0  0  0  0  0  0  0  0  0  0  0  0
   -2.6050   -0.3484    0.0033 C   0  0  0  0  0  0  0  0  0  0  0  0
   -1.9401   -0.9045    0.9204 O   0  0  0  0  0  0  0  0  0  0  0  0
   -3.9506    0.1938    0.3088 C   0  0  0  0  0  0  0  0  0  0  0  0
   -4.5071    1.2338   -0.4598 C   0  0  0  0  0  0  0  0  0  0  0  0
   -5.7740    1.7397   -0.1537 C   0  0  0  0  0  0  0  0  0  0  0  0
   -6.4962    1.2207    0.9227 C   0  0  0  0  0  0  0  0  0  0  0  0
   -5.9505    0.1965    1.7013 C   0  0  0  0  0  0  0  0  0  0  0  0
   -6.8559   -0.4507    3.0573 Cl  0  0  0  0  0  0  0  0  0  0  0  0
   -4.6823   -0.3125    1.3994 C   0  0  0  0  0  0  0  0  0  0  0  0
    0.2637    0.4123   -0.9757 C   0  0  0  0  0  0  0  0  0  0  0  0
    0.0099    1.6340   -1.1643 O   0  0  0  0  0  0  0  0  0  0  0  0
    1.4189    0.0363   -0.1922 N   0  0  0  0  0  0  0  0  0  0  0  0
    1.9062    0.9431    0.8662 C   0  0  0  0  0  0  0  0  0  0  0  0
    3.4338    1.0664    0.8087 C   0  0  0  0  0  0  0  0  0  0  0  0
    4.0254   -0.2600    0.6679 N   0  0  0  0  0  0  0  0  0  0  0  0
    3.4177   -1.3298    0.1391 C   0  0  0  0  0  0  0  0  0  0  0  0
    4.2507   -2.3841    0.0538 N   0  0  0  0  0  0  0  0  0  0  0  0
    5.4261   -1.9767    0.5175 N   0  0  0  0  0  0  0  0  0  0  0  0
    5.2863   -0.6827    0.8763 C   0  0  0  0  0  0  0  0  0  0  0  0
    6.3926    0.1562    1.4387 C   0  0  0  0  0  0  0  0  0  0  0  0
    6.5411    1.3020    0.6797 F   0  0  0  0  0  0  0  0  0  0  0  0
    6.0916    0.5051    2.7418 F   0  0  0  0  0  0  0  0  0  0  0  0
    7.5818   -0.5501    1.4241 F   0  0  0  0  0  0  0  0  0  0  0  0
    1.9821   -1.3248   -0.2829 C   0  0  0  0  0  0  0  0  0  0  0  0
   -0.6208    0.2901   -3.5881 H   0  0  0  0  0  0  0  0  0  0  0  0
    0.6460   -0.9692   -3.3143 H   0  0  0  0  0  0  0  0  0  0  0  0
   -1.0694   -1.4594   -3.5599 H   0  0  0  0  0  0  0  0  0  0  0  0
   -0.4651   -1.6243   -1.1750 H   0  0  0  0  0  0  0  0  0  0  0  0
   -2.6757    0.0052   -2.1156 H   0  0  0  0  0  0  0  0  0  0  0  0
   -3.9593    1.6765   -1.2809 H   0  0  0  0  0  0  0  0  0  0  0  0
   -6.1936    2.5408   -0.7485 H   0  0  0  0  0  0  0  0  0  0  0  0
   -7.4763    1.6184    1.1538 H   0  0  0  0  0  0  0  0  0  0  0  0
   -4.2751   -1.1093    2.0099 H   0  0  0  0  0  0  0  0  0  0  0  0
    1.6087    0.5319    1.8552 H   0  0  0  0  0  0  0  0  0  0  0  0
    1.4635    1.9581    0.7779 H   0  0  0  0  0  0  0  0  0  0  0  0
    3.7228    1.6880   -0.0658 H   0  0  0  0  0  0  0  0  0  0  0  0
    3.8021    1.5546    1.7360 H   0  0  0  0  0  0  0  0  0  0  0  0
    1.9367   -1.6905   -1.3301 H   0  0  0  0  0  0  0  0  0  0  0  0
    1.4056   -2.0102    0.3735 H   0  0  0  0  0  0  0  0  0  0  0  0
  1  2  1  0
  2  3  1  0
  3  4  1  0
  4  5  2  0
  4  6  1  0
  6  7  2  0
  7  8  1  0
  8  9  2  0
  9 10  1  0
 10 11  1  0
 10 12  2  0
  2 13  1  0
 13 14  2  0
 13 15  1  0
 15 16  1  0
 16 17  1  0
 17 18  1  0
 18 19  1  0
 19 20  2  0
 20 21  1  0
 21 22  2  0
 22 23  1  0
 23 24  1  0
 23 25  1  0
 23 26  1  0
 19 27  1  0
 12  6  1  0
 27 15  1  0
 22 18  1  0
  1 28  1  0
  1 29  1  0
  1 30  1  0
  2 31  1  1
  3 32  1  0
  7 33  1  0
  8 34  1  0
  9 35  1  0
 12 36  1  0
 16 37  1  0
 16 38  1  0
 17 39  1  0
 17 40  1  0
 27 41  1  0
 27 42  1  0
M  END
$$$$
