
     RDKit          3D

 37 37  0  0  0  0  0  0  0  0999 V2000
   -1.5692    2.8958    1.2571 N   0  0  0  0  0  0  0  0  0  0  0  0
   -1.3821    2.0901    0.0549 C   0  0  0  0  0  0  0  0  0  0  0  0
   -1.4726    0.5985    0.4011 C   0  0  0  0  0  0  0  0  0  0  0  0
   -1.3323   -0.3016   -0.8476 C   0  0  2  0  0  0  0  0  0  0  0  0
   -1.5532   -1.7060   -0.4993 N   0  0  0  0  0  0  0  0  0  0  0  0
   -2.6943   -2.2866   -0.2558 C   0  0  0  0  0  0  0  0  0  0  0  0
   -2.7019   -3.6720    0.0875 N   0  0  0  0  0  0  0  0  0  0  0  0
   -3.9398   -1.5799   -0.3340 N   0  0  0  0  0  0  0  0  0  0  0  0
    0.0270   -0.1673   -1.4943 C   0  0  0  0  0  0  0  0  0  0  0  0
    0.0954   -0.1348   -2.7534 O   0  0  0  0  0  0  0  0  0  0  0  0
    1.2365   -0.0534   -0.7191 N   0  0  0  0  0  0  0  0  0  0  0  0
    1.5917   -1.0840    0.2670 C   0  0  0  0  0  0  0  0  0  0  0  0
    2.3477   -0.4592    1.4441 C   0  0  0  0  0  0  0  0  0  0  0  0
    3.5299    0.3808    0.9513 C   0  0  0  0  0  0  0  0  0  0  0  0
    3.0568    1.4549   -0.0327 C   0  0  0  0  0  0  0  0  0  0  0  0
    2.3081    0.8227   -1.2090 C   0  0  0  0  0  0  0  0  0  0  0  0
   -0.7281    2.7718    1.8669 H   0  0  0  0  0  0  0  0  0  0  0  0
   -1.5795    3.9007    0.9679 H   0  0  0  0  0  0  0  0  0  0  0  0
   -2.1764    2.3449   -0.6808 H   0  0  0  0  0  0  0  0  0  0  0  0
   -0.3936    2.3242   -0.3989 H   0  0  0  0  0  0  0  0  0  0  0  0
   -0.6959    0.3438    1.1516 H   0  0  0  0  0  0  0  0  0  0  0  0
   -2.4560    0.4134    0.8826 H   0  0  0  0  0  0  0  0  0  0  0  0
   -2.0875    0.0097   -1.6030 H   0  0  0  0  0  0  0  0  0  0  0  0
   -3.6006   -4.1658    0.2835 H   0  0  0  0  0  0  0  0  0  0  0  0
   -1.8078   -4.2084    0.1484 H   0  0  0  0  0  0  0  0  0  0  0  0
   -4.0074   -0.5781   -0.6141 H   0  0  0  0  0  0  0  0  0  0  0  0
   -4.8315   -2.0784   -0.1194 H   0  0  0  0  0  0  0  0  0  0  0  0
    2.2300   -1.8518   -0.2219 H   0  0  0  0  0  0  0  0  0  0  0  0
    0.6923   -1.5957    0.6626 H   0  0  0  0  0  0  0  0  0  0  0  0
    1.6556    0.1839    2.0305 H   0  0  0  0  0  0  0  0  0  0  0  0
    2.7197   -1.2644    2.1135 H   0  0  0  0  0  0  0  0  0  0  0  0
    4.0213    0.8692    1.8202 H   0  0  0  0  0  0  0  0  0  0  0  0
    4.2784   -0.2774    0.4576 H   0  0  0  0  0  0  0  0  0  0  0  0
    3.9339    2.0210   -0.4135 H   0  0  0  0  0  0  0  0  0  0  0  0
    2.3843    2.1693    0.4916 H   0  0  0  0  0  0  0  0  0  0  0  0
    3.0132    0.2309   -1.8326 H   0  0  0  0  0  0  0  0  0  0  0  0
    1.8877    1.6391   -1.8369 H   0  0  0  0  0  0  0  0  0  0  0  0
  1  2  1  0
  2  3  1  0
  3  4  1  0
  4  5  1  0
  5  6  2  3
  6  7  1  0
  6  8  1  0
  4  9  1  0
  9 10  2  0
  9 11  1  0
 11 12  1  0
 12 13  1  0
 13 14  1  0
 14 15  1  0
 15 16  1  0
 16 11  1  0
  1 17  1  0
  1 18  1  0
  2 19  1  0
  2 20  1  0
  3 21  1  0
  3 22  1  0
  4 23  1  6
  7 24  1  0
  7 25  1  0
  8 26  1  0
  8 27  1  0
 12 28  1  0
 12 29  1  0
 13 30  1  0
 13 31  1  0
 14 32  1  0
 14 33  1  0
 15 34  1  0
 15 35  1  0
 16 36  1  0
 16 37  1  0
M  END
$$$$
