
     RDKit          3D

 82 88  0  0  0  0  0  0  0  0999 V2000
   -1.0424    1.0415   -0.6067 O   0  0  0  0  0  0  0  0  0  0  0  0
   -1.2499    0.4501   -1.7009 C   0  0  0  0  0  0  0  0  0  0  0  0
   -0.1836    0.2376   -2.6395 N   0  0  0  0  0  0  0  0  0  0  0  0
    1.2182    0.6588   -2.4528 C   0  0  0  0  0  0  0  0  0  0  0  0
    2.0463    0.2354   -3.6979 C   0  0  0  0  0  0  0  0  0  0  0  0
    3.5189    0.6587   -3.5326 C   0  0  0  0  0  0  0  0  0  0  0  0
    3.5968    2.1906   -3.3666 C   0  0  0  0  0  0  0  0  0  0  0  0
    2.7869    2.6176   -2.1246 C   0  0  0  0  0  0  0  0  0  0  0  0
    3.3742    1.9400   -0.8660 C   0  0  0  0  0  0  0  0  0  0  0  0
    3.3272    0.3900   -1.0143 C   0  0  0  0  0  0  0  0  0  0  0  0
    3.8356   -0.2712    0.2147 N   0  0  0  0  0  0  0  0  0  0  0  0
    5.2925   -0.1950    0.4216 C   0  0  0  0  0  0  0  0  0  0  0  0
    5.6461   -0.5566    1.8390 C   0  0  0  0  0  0  0  0  0  0  0  0
    4.7428   -0.6006    2.7187 O   0  0  0  0  0  0  0  0  0  0  0  0
    7.0109   -0.8044    2.2138 N   0  0  0  0  0  0  0  0  0  0  0  0
    7.4214   -1.1339    3.5802 C   0  0  0  0  0  0  0  0  0  0  0  0
    8.8953   -1.2482    3.4679 C   0  0  0  0  0  0  0  0  0  0  0  0
    9.8115   -1.5483    4.4773 C   0  0  0  0  0  0  0  0  0  0  0  0
   11.1758   -1.6050    4.1492 C   0  0  0  0  0  0  0  0  0  0  0  0
   11.5991   -1.3625    2.8277 C   0  0  0  0  0  0  0  0  0  0  0  0
   12.9180   -1.4193    2.5193 F   0  0  0  0  0  0  0  0  0  0  0  0
   10.6589   -1.0621    1.8281 C   0  0  0  0  0  0  0  0  0  0  0  0
    9.3084   -1.0109    2.1771 C   0  0  0  0  0  0  0  0  0  0  0  0
    8.1513   -0.7177    1.2978 C   0  0  0  0  0  0  0  0  0  0  0  0
    4.1196   -0.0286   -2.2884 C   0  0  0  0  0  0  0  0  0  0  0  0
    1.8372   -0.0253   -1.2048 C   0  0  0  0  0  0  0  0  0  0  0  0
    1.3130    2.1997   -2.2997 C   0  0  0  0  0  0  0  0  0  0  0  0
   -2.5312   -0.0099   -2.0172 O   0  0  0  0  0  0  0  0  0  0  0  0
   -3.6451    0.1580   -1.1461 C   0  0  0  0  0  0  0  0  0  0  0  0
   -4.8884   -0.4544   -1.7840 C   0  0  0  0  0  0  0  0  0  0  0  0
   -5.9847   -0.3745   -0.8926 O   0  0  0  0  0  0  0  0  0  0  0  0
   -6.7897    0.7471   -1.1949 C   0  0  0  0  0  0  0  0  0  0  0  0
   -7.8835    0.8891   -0.1373 C   0  0  0  0  0  0  0  0  0  0  0  0
   -8.7818   -0.2679   -0.1409 N   0  0  0  0  0  0  0  0  0  0  0  0
   -9.8927   -0.3977    0.7651 C   0  0  0  0  0  0  0  0  0  0  0  0
  -10.2126    0.5905    1.7278 C   0  0  0  0  0  0  0  0  0  0  0  0
  -11.3143    0.4206    2.5983 C   0  0  0  0  0  0  0  0  0  0  0  0
  -12.1230   -0.7391    2.5291 C   0  0  0  0  0  0  0  0  0  0  0  0
  -13.2466   -0.9234    3.4094 N   0  0  0  0  0  0  0  0  0  0  0  0
  -13.5330   -0.0556    4.2601 O   0  0  0  0  0  0  0  0  0  0  0  0
  -14.0245   -2.0555    3.3310 O   0  0  0  0  0  0  0  0  0  0  0  0
  -11.7726   -1.6902    1.5639 C   0  0  0  0  0  0  0  0  0  0  0  0
  -12.3522   -2.8662    1.2784 N   0  0  0  0  0  0  0  0  0  0  0  0
  -11.6359   -3.3595    0.2992 O   0  0  0  0  0  0  0  0  0  0  0  0
  -10.6378   -2.5983   -0.0738 N   0  0  0  0  0  0  0  0  0  0  0  0
  -10.7144   -1.5260    0.7285 C   0  0  0  0  0  0  0  0  0  0  0  0
   -0.4450   -0.2593   -3.5217 H   0  0  0  0  0  0  0  0  0  0  0  0
    1.9905   -0.8671   -3.8387 H   0  0  0  0  0  0  0  0  0  0  0  0
    1.6257    0.7056   -4.6147 H   0  0  0  0  0  0  0  0  0  0  0  0
    4.0935    0.3558   -4.4349 H   0  0  0  0  0  0  0  0  0  0  0  0
    4.6570    2.5085   -3.2574 H   0  0  0  0  0  0  0  0  0  0  0  0
    3.1931    2.6919   -4.2738 H   0  0  0  0  0  0  0  0  0  0  0  0
    2.8446    3.7221   -2.0100 H   0  0  0  0  0  0  0  0  0  0  0  0
    2.8009    2.2544    0.0341 H   0  0  0  0  0  0  0  0  0  0  0  0
    4.4134    2.3043   -0.7353 H   0  0  0  0  0  0  0  0  0  0  0  0
    3.5855   -1.2887    0.1834 H   0  0  0  0  0  0  0  0  0  0  0  0
    5.6787    0.8253    0.2357 H   0  0  0  0  0  0  0  0  0  0  0  0
    5.8066   -0.9031   -0.2639 H   0  0  0  0  0  0  0  0  0  0  0  0
    7.1459   -0.3140    4.2774 H   0  0  0  0  0  0  0  0  0  0  0  0
    6.9762   -2.1011    3.8967 H   0  0  0  0  0  0  0  0  0  0  0  0
    9.4789   -1.7332    5.4904 H   0  0  0  0  0  0  0  0  0  0  0  0
   11.9039   -1.8360    4.9160 H   0  0  0  0  0  0  0  0  0  0  0  0
   10.9745   -0.8746    0.8099 H   0  0  0  0  0  0  0  0  0  0  0  0
    8.0691   -1.4845    0.4986 H   0  0  0  0  0  0  0  0  0  0  0  0
    8.2333    0.3055    0.8731 H   0  0  0  0  0  0  0  0  0  0  0  0
    4.0884   -1.1334   -2.4138 H   0  0  0  0  0  0  0  0  0  0  0  0
    5.1869    0.2705   -2.2087 H   0  0  0  0  0  0  0  0  0  0  0  0
    1.7596   -1.1298   -1.3181 H   0  0  0  0  0  0  0  0  0  0  0  0
    1.2725    0.2455   -0.2881 H   0  0  0  0  0  0  0  0  0  0  0  0
    0.8823    2.6992   -3.1956 H   0  0  0  0  0  0  0  0  0  0  0  0
    0.7370    2.5520   -1.4190 H   0  0  0  0  0  0  0  0  0  0  0  0
   -3.4399   -0.3476   -0.1772 H   0  0  0  0  0  0  0  0  0  0  0  0
   -3.8119    1.2412   -0.9623 H   0  0  0  0  0  0  0  0  0  0  0  0
   -5.0806    0.0165   -2.7779 H   0  0  0  0  0  0  0  0  0  0  0  0
   -4.6862   -1.5290   -1.9795 H   0  0  0  0  0  0  0  0  0  0  0  0
   -7.2701    0.6258   -2.1925 H   0  0  0  0  0  0  0  0  0  0  0  0
   -6.1857    1.6829   -1.1929 H   0  0  0  0  0  0  0  0  0  0  0  0
   -8.4693    1.8093   -0.3503 H   0  0  0  0  0  0  0  0  0  0  0  0
   -7.4086    0.9890    0.8629 H   0  0  0  0  0  0  0  0  0  0  0  0
   -8.6147   -1.0364   -0.8304 H   0  0  0  0  0  0  0  0  0  0  0  0
   -9.6220    1.4921    1.8150 H   0  0  0  0  0  0  0  0  0  0  0  0
  -11.5303    1.1957    3.3222 H   0  0  0  0  0  0  0  0  0  0  0  0
  1  2  2  0
  2  3  1  0
  3  4  1  0
  4  5  1  0
  5  6  1  0
  6  7  1  0
  7  8  1  0
  8  9  1  0
  9 10  1  0
 10 11  1  0
 11 12  1  0
 12 13  1  0
 13 14  2  0
 13 15  1  0
 15 16  1  0
 16 17  1  0
 17 18  2  0
 18 19  1  0
 19 20  2  0
 20 21  1  0
 20 22  1  0
 22 23  2  0
 23 24  1  0
 10 25  1  0
 10 26  1  0
  8 27  1  0
  2 28  1  0
 28 29  1  0
 29 30  1  0
 30 31  1  0
 31 32  1  0
 32 33  1  0
 33 34  1  0
 34 35  1  0
 35 36  2  0
 36 37  1  0
 37 38  2  0
 38 39  1  0
 39 40  2  0
 39 41  1  0
 38 42  1  0
 42 43  2  0
 43 44  1  0
 44 45  1  0
 45 46  2  0
 26  4  1  0
 46 35  1  0
 27  4  1  0
 46 42  1  0
 25  6  1  0
 24 15  1  0
 23 17  1  0
  3 47  1  0
  5 48  1  0
  5 49  1  0
  6 50  1  0
  7 51  1  0
  7 52  1  0
  8 53  1  0
  9 54  1  0
  9 55  1  0
 11 56  1  0
 12 57  1  0
 12 58  1  0
 16 59  1  0
 16 60  1  0
 18 61  1  0
 19 62  1  0
 22 63  1  0
 24 64  1  0
 24 65  1  0
 25 66  1  0
 25 67  1  0
 26 68  1  0
 26 69  1  0
 27 70  1  0
 27 71  1  0
 29 72  1  0
 29 73  1  0
 30 74  1  0
 30 75  1  0
 32 76  1  0
 32 77  1  0
 33 78  1  0
 33 79  1  0
 34 80  1  0
 36 81  1  0
 37 82  1  0
M  CHG  2  39   1  41  -1
M  END
$$$$
