
     RDKit          3D

 32 33  0  0  0  0  0  0  0  0999 V2000
   -3.1782    1.5129    0.4506 N   0  0  0  0  0  0  0  0  0  0  0  0
   -3.6085    0.5272   -0.4884 C   0  0  0  0  0  0  0  0  0  0  0  0
   -4.6292    0.7414   -1.1952 O   0  0  0  0  0  0  0  0  0  0  0  0
   -2.8281   -0.7429   -0.6701 C   0  0  0  0  0  0  0  0  0  0  0  0
   -1.8109   -0.6259   -1.8219 C   0  0  2  0  0  0  0  0  0  0  0  0
   -1.1592   -1.9137   -2.0601 N   0  0  0  0  0  0  0  0  0  0  0  0
   -0.7836    0.4525   -1.5429 C   0  0  0  0  0  0  0  0  0  0  0  0
   -0.8774    1.5408   -2.1732 O   0  0  0  0  0  0  0  0  0  0  0  0
    0.2439    0.3102   -0.5422 N   0  0  0  0  0  0  0  0  0  0  0  0
    1.0090    1.4535   -0.0379 C   0  0  0  0  0  0  0  0  0  0  0  0
    1.9524    0.8338    0.9220 C   0  0  0  0  0  0  0  0  0  0  0  0
    2.9154    1.4677    1.7088 C   0  0  0  0  0  0  0  0  0  0  0  0
    3.7119    0.6811    2.5568 C   0  0  0  0  0  0  0  0  0  0  0  0
    3.5344   -0.7155    2.6036 C   0  0  0  0  0  0  0  0  0  0  0  0
    4.3075   -1.4681    3.4244 F   0  0  0  0  0  0  0  0  0  0  0  0
    2.5590   -1.3311    1.8018 C   0  0  0  0  0  0  0  0  0  0  0  0
    1.7785   -0.5291    0.9674 C   0  0  0  0  0  0  0  0  0  0  0  0
    0.7024   -0.9553    0.0418 C   0  0  0  0  0  0  0  0  0  0  0  0
   -3.7132    2.4024    0.5631 H   0  0  0  0  0  0  0  0  0  0  0  0
   -2.3219    1.3611    1.0286 H   0  0  0  0  0  0  0  0  0  0  0  0
   -3.5423   -1.5655   -0.8928 H   0  0  0  0  0  0  0  0  0  0  0  0
   -2.3202   -1.0041    0.2804 H   0  0  0  0  0  0  0  0  0  0  0  0
   -2.3718   -0.3477   -2.7451 H   0  0  0  0  0  0  0  0  0  0  0  0
   -1.8885   -2.6068   -2.3467 H   0  0  0  0  0  0  0  0  0  0  0  0
   -0.5208   -1.8111   -2.8828 H   0  0  0  0  0  0  0  0  0  0  0  0
    0.3373    2.1699    0.4814 H   0  0  0  0  0  0  0  0  0  0  0  0
    1.5637    1.9465   -0.8646 H   0  0  0  0  0  0  0  0  0  0  0  0
    3.0462    2.5412    1.6669 H   0  0  0  0  0  0  0  0  0  0  0  0
    4.4648    1.1512    3.1761 H   0  0  0  0  0  0  0  0  0  0  0  0
    2.4155   -2.4036    1.8302 H   0  0  0  0  0  0  0  0  0  0  0  0
   -0.1096   -1.4543    0.6072 H   0  0  0  0  0  0  0  0  0  0  0  0
    1.1211   -1.6186   -0.7440 H   0  0  0  0  0  0  0  0  0  0  0  0
  1  2  1  0
  2  3  2  0
  2  4  1  0
  4  5  1  0
  5  6  1  0
  5  7  1  0
  7  8  2  0
  7  9  1  0
  9 10  1  0
 10 11  1  0
 11 12  2  0
 12 13  1  0
 13 14  2  0
 14 15  1  0
 14 16  1  0
 16 17  2  0
 17 18  1  0
 18  9  1  0
 17 11  1  0
  1 19  1  0
  1 20  1  0
  4 21  1  0
  4 22  1  0
  5 23  1  6
  6 24  1  0
  6 25  1  0
 10 26  1  0
 10 27  1  0
 12 28  1  0
 13 29  1  0
 16 30  1  0
 18 31  1  0
 18 32  1  0
M  END
$$$$
