
     RDKit          3D

 70 74  0  0  0  0  0  0  0  0999 V2000
   -4.9718   -0.2125    0.6204 N   0  0  0  0  0  0  0  0  0  0  0  0
   -4.7436    0.3376   -0.7224 C   0  0  1  0  0  0  0  0  0  0  0  0
   -3.5356   -0.3512   -1.3962 C   0  0  0  0  0  0  0  0  0  0  0  0
   -2.2484   -0.0644   -0.6671 C   0  0  0  0  0  0  0  0  0  0  0  0
   -1.7449    1.0872   -0.7709 O   0  0  0  0  0  0  0  0  0  0  0  0
   -1.6058   -1.0511    0.1668 N   0  0  0  0  0  0  0  0  0  0  0  0
   -2.1334   -2.3861    0.4097 C   0  0  0  0  0  0  0  0  0  0  0  0
   -1.1758   -3.0397    1.3965 C   0  0  0  0  0  0  0  0  0  0  0  0
   -0.3640   -1.8993    2.0007 C   0  0  0  0  0  0  0  0  0  0  0  0
   -0.4310   -0.7590    0.9797 C   0  0  1  0  0  0  0  0  0  0  0  0
    0.8287   -0.7064    0.0930 C   0  0  0  0  0  0  0  0  0  0  0  0
    1.9994   -0.2705    0.8556 N   0  0  0  0  0  0  0  0  0  0  0  0
    3.2958   -0.1845    0.2463 C   0  0  0  0  0  0  0  0  0  0  0  0
    3.4738   -0.6509   -0.9125 O   0  0  0  0  0  0  0  0  0  0  0  0
    4.4403    0.4131    0.9708 C   0  0  0  0  0  0  0  0  0  0  0  0
    5.7308   -0.1121    0.7814 C   0  0  0  0  0  0  0  0  0  0  0  0
    6.8319    0.4323    1.4585 C   0  0  0  0  0  0  0  0  0  0  0  0
    8.4476   -0.2293    1.2107 S   0  0  0  0  0  0  0  0  0  0  0  0
    8.3644   -1.5216    0.4429 O   0  0  0  0  0  0  0  0  0  0  0  0
    9.0751   -0.5063    2.5481 O   0  0  0  0  0  0  0  0  0  0  0  0
    9.4144    0.9421    0.3441 N   0  0  0  0  0  0  0  0  0  0  0  0
    8.9852    1.0397   -1.0566 C   0  0  0  0  0  0  0  0  0  0  0  0
   10.2635    0.4145   -1.5786 C   0  0  0  0  0  0  0  0  0  0  0  0
   10.6720    0.3441   -0.1205 C   0  0  0  0  0  0  0  0  0  0  0  0
    6.6451    1.5250    2.3168 C   0  0  0  0  0  0  0  0  0  0  0  0
    7.6987    2.0799    2.9675 F   0  0  0  0  0  0  0  0  0  0  0  0
    5.3692    2.0632    2.4970 C   0  0  0  0  0  0  0  0  0  0  0  0
    4.2698    1.5172    1.8290 C   0  0  0  0  0  0  0  0  0  0  0  0
    3.0560    2.1044    1.9826 F   0  0  0  0  0  0  0  0  0  0  0  0
   -6.0117    0.1938   -1.6121 C   0  0  1  0  0  0  0  0  0  0  0  0
   -6.6072   -1.2411   -1.6248 C   0  0  0  0  0  0  0  0  0  0  0  0
   -7.9988   -1.1707   -0.9685 C   0  0  0  0  0  0  0  0  0  0  0  0
   -8.2309    0.2773   -0.7686 C   0  0  0  0  0  0  0  0  0  0  0  0
   -9.3970    0.8728   -0.2813 C   0  0  0  0  0  0  0  0  0  0  0  0
   -9.4451    2.2705   -0.1655 C   0  0  0  0  0  0  0  0  0  0  0  0
  -10.5671    2.8704    0.3031 F   0  0  0  0  0  0  0  0  0  0  0  0
   -8.3338    3.0484   -0.5393 C   0  0  0  0  0  0  0  0  0  0  0  0
   -8.3840    4.3992   -0.4333 F   0  0  0  0  0  0  0  0  0  0  0  0
   -7.1716    2.4289   -1.0242 C   0  0  0  0  0  0  0  0  0  0  0  0
   -7.1398    1.0333   -1.1196 C   0  0  0  0  0  0  0  0  0  0  0  0
   -4.1493    0.0209    1.2221 H   0  0  0  0  0  0  0  0  0  0  0  0
   -5.7783    0.2882    1.0581 H   0  0  0  0  0  0  0  0  0  0  0  0
   -4.5066    1.4229   -0.6327 H   0  0  0  0  0  0  0  0  0  0  0  0
   -3.4273    0.0335   -2.4337 H   0  0  0  0  0  0  0  0  0  0  0  0
   -3.7103   -1.4418   -1.4826 H   0  0  0  0  0  0  0  0  0  0  0  0
   -3.1497   -2.3175    0.8530 H   0  0  0  0  0  0  0  0  0  0  0  0
   -2.1676   -2.9678   -0.5366 H   0  0  0  0  0  0  0  0  0  0  0  0
   -0.4941   -3.7312    0.8538 H   0  0  0  0  0  0  0  0  0  0  0  0
   -1.7232   -3.6066    2.1806 H   0  0  0  0  0  0  0  0  0  0  0  0
   -0.8483   -1.5712    2.9469 H   0  0  0  0  0  0  0  0  0  0  0  0
    0.6741   -2.2244    2.2307 H   0  0  0  0  0  0  0  0  0  0  0  0
   -0.5668    0.2119    1.5073 H   0  0  0  0  0  0  0  0  0  0  0  0
    0.6661    0.0070   -0.7424 H   0  0  0  0  0  0  0  0  0  0  0  0
    1.0208   -1.7107   -0.3451 H   0  0  0  0  0  0  0  0  0  0  0  0
    1.9013   -0.0522    1.8729 H   0  0  0  0  0  0  0  0  0  0  0  0
    5.8749   -0.9525    0.1138 H   0  0  0  0  0  0  0  0  0  0  0  0
    8.8866    2.1043   -1.3617 H   0  0  0  0  0  0  0  0  0  0  0  0
    8.0803    0.4424   -1.3111 H   0  0  0  0  0  0  0  0  0  0  0  0
   10.1013   -0.5877   -2.0312 H   0  0  0  0  0  0  0  0  0  0  0  0
   10.8841    1.1194   -2.1733 H   0  0  0  0  0  0  0  0  0  0  0  0
   11.5300    1.0146    0.1044 H   0  0  0  0  0  0  0  0  0  0  0  0
   10.8496   -0.6991    0.2267 H   0  0  0  0  0  0  0  0  0  0  0  0
    5.2333    2.9169    3.1487 H   0  0  0  0  0  0  0  0  0  0  0  0
   -5.7768    0.5110   -2.6527 H   0  0  0  0  0  0  0  0  0  0  0  0
   -6.7111   -1.5884   -2.6763 H   0  0  0  0  0  0  0  0  0  0  0  0
   -5.9718   -1.9767   -1.0867 H   0  0  0  0  0  0  0  0  0  0  0  0
   -7.9979   -1.6902    0.0140 H   0  0  0  0  0  0  0  0  0  0  0  0
   -8.7778   -1.6035   -1.6326 H   0  0  0  0  0  0  0  0  0  0  0  0
  -10.2498    0.2677   -0.0014 H   0  0  0  0  0  0  0  0  0  0  0  0
   -6.3160    3.0228   -1.3182 H   0  0  0  0  0  0  0  0  0  0  0  0
  1  2  1  0
  2  3  1  0
  3  4  1  0
  4  5  2  0
  4  6  1  0
  6  7  1  0
  7  8  1  0
  8  9  1  0
  9 10  1  0
 10 11  1  0
 11 12  1  0
 12 13  1  0
 13 14  2  0
 13 15  1  0
 15 16  2  0
 16 17  1  0
 17 18  1  0
 18 19  2  0
 18 20  2  0
 18 21  1  0
 21 22  1  0
 22 23  1  0
 23 24  1  0
 17 25  2  0
 25 26  1  0
 25 27  1  0
 27 28  2  0
 28 29  1  0
  2 30  1  0
 30 31  1  0
 31 32  1  0
 32 33  1  0
 33 34  2  0
 34 35  1  0
 35 36  1  0
 35 37  2  0
 37 38  1  0
 37 39  1  0
 39 40  2  0
 10  6  1  0
 28 15  1  0
 40 30  1  0
 24 21  1  0
 40 33  1  0
  1 41  1  0
  1 42  1  0
  2 43  1  1
  3 44  1  0
  3 45  1  0
  7 46  1  0
  7 47  1  0
  8 48  1  0
  8 49  1  0
  9 50  1  0
  9 51  1  0
 10 52  1  1
 11 53  1  0
 11 54  1  0
 12 55  1  0
 16 56  1  0
 22 57  1  0
 22 58  1  0
 23 59  1  0
 23 60  1  0
 24 61  1  0
 24 62  1  0
 27 63  1  0
 30 64  1  6
 31 65  1  0
 31 66  1  0
 32 67  1  0
 32 68  1  0
 34 69  1  0
 39 70  1  0
M  END
$$$$
