
     RDKit          3D

 63 66  0  0  0  0  0  0  0  0999 V2000
    7.0444   -0.3235   -3.1969 C   0  0  0  0  0  0  0  0  0  0  0  0
    5.8985   -0.1179   -2.3771 O   0  0  0  0  0  0  0  0  0  0  0  0
    5.6614   -0.7838   -1.1652 C   0  0  0  0  0  0  0  0  0  0  0  0
    6.5551   -1.7346   -0.6407 C   0  0  0  0  0  0  0  0  0  0  0  0
    6.2716   -2.3704    0.5688 C   0  0  0  0  0  0  0  0  0  0  0  0
    5.1017   -2.0665    1.2684 C   0  0  0  0  0  0  0  0  0  0  0  0
    4.1956   -1.1140    0.7642 C   0  0  0  0  0  0  0  0  0  0  0  0
    2.9419   -0.7733    1.4862 C   0  0  0  0  0  0  0  0  0  0  0  0
    2.6660   -1.1340    2.8082 C   0  0  0  0  0  0  0  0  0  0  0  0
    1.1425   -0.5434    3.1978 S   0  0  0  0  0  0  0  0  0  0  0  0
    0.8962    0.1726    1.6945 C   0  0  0  0  0  0  0  0  0  0  0  0
   -0.3908    0.8503    1.2521 C   0  0  0  0  0  0  0  0  0  0  0  0
   -1.4386   -0.1821    1.1295 N   0  0  0  0  0  0  0  0  0  0  0  0
   -1.3683   -1.3115    0.2403 C   0  0  0  0  0  0  0  0  0  0  0  0
   -0.2834   -1.6166   -0.3245 O   0  0  0  0  0  0  0  0  0  0  0  0
   -2.5908   -2.1505   -0.0151 C   0  0  0  0  0  0  0  0  0  0  0  0
   -3.1245   -2.0163   -1.4607 C   0  0  2  0  0  0  0  0  0  0  0  0
   -2.1095   -2.4586   -2.4208 N   0  0  0  0  0  0  0  0  0  0  0  0
   -3.5758   -0.5766   -1.8048 C   0  0  0  0  0  0  0  0  0  0  0  0
   -4.7307   -0.1065   -0.9512 C   0  0  0  0  0  0  0  0  0  0  0  0
   -4.5318    0.8905    0.0198 C   0  0  0  0  0  0  0  0  0  0  0  0
   -5.5920    1.3166    0.8243 C   0  0  0  0  0  0  0  0  0  0  0  0
   -6.8624    0.7603    0.6606 C   0  0  0  0  0  0  0  0  0  0  0  0
   -7.0763   -0.2186   -0.3128 C   0  0  0  0  0  0  0  0  0  0  0  0
   -6.0189   -0.6507   -1.1204 C   0  0  0  0  0  0  0  0  0  0  0  0
   -6.2547   -1.5891   -2.0720 F   0  0  0  0  0  0  0  0  0  0  0  0
   -0.8531    1.8779    2.3320 C   0  0  0  0  0  0  0  0  0  0  0  0
    0.1427    3.0121    2.5939 C   0  0  0  0  0  0  0  0  0  0  0  0
    0.4358    3.9136    1.0941 S   0  0  0  0  0  0  0  0  0  0  0  0
   -0.7844    4.7085    0.7223 O   0  0  0  0  0  0  0  0  0  0  0  0
    1.6081    4.8373    1.2672 O   0  0  0  0  0  0  0  0  0  0  0  0
    0.7864    2.7113   -0.1643 C   0  0  0  0  0  0  0  0  0  0  0  0
   -0.2410    1.5690   -0.1284 C   0  0  0  0  0  0  0  0  0  0  0  0
    1.9498   -0.0624    0.8808 N   0  0  0  0  0  0  0  0  0  0  0  0
    4.4896   -0.4832   -0.4602 C   0  0  0  0  0  0  0  0  0  0  0  0
    6.9733    0.3308   -4.0898 H   0  0  0  0  0  0  0  0  0  0  0  0
    7.0884   -1.3808   -3.5334 H   0  0  0  0  0  0  0  0  0  0  0  0
    7.9667   -0.0615   -2.6366 H   0  0  0  0  0  0  0  0  0  0  0  0
    7.4684   -1.9905   -1.1601 H   0  0  0  0  0  0  0  0  0  0  0  0
    6.9604   -3.1057    0.9648 H   0  0  0  0  0  0  0  0  0  0  0  0
    4.9091   -2.5919    2.1927 H   0  0  0  0  0  0  0  0  0  0  0  0
    3.3045   -1.6859    3.4828 H   0  0  0  0  0  0  0  0  0  0  0  0
   -2.3050   -0.0910    1.7077 H   0  0  0  0  0  0  0  0  0  0  0  0
   -2.3349   -3.2140    0.1820 H   0  0  0  0  0  0  0  0  0  0  0  0
   -3.3955   -1.8864    0.7037 H   0  0  0  0  0  0  0  0  0  0  0  0
   -4.0044   -2.6924   -1.5520 H   0  0  0  0  0  0  0  0  0  0  0  0
   -2.5351   -2.4610   -3.3765 H   0  0  0  0  0  0  0  0  0  0  0  0
   -1.8697   -3.4558   -2.2142 H   0  0  0  0  0  0  0  0  0  0  0  0
   -3.8968   -0.5388   -2.8686 H   0  0  0  0  0  0  0  0  0  0  0  0
   -2.7124    0.1186   -1.7167 H   0  0  0  0  0  0  0  0  0  0  0  0
   -3.5594    1.3444    0.1515 H   0  0  0  0  0  0  0  0  0  0  0  0
   -5.4288    2.0814    1.5726 H   0  0  0  0  0  0  0  0  0  0  0  0
   -7.6829    1.0924    1.2835 H   0  0  0  0  0  0  0  0  0  0  0  0
   -8.0644   -0.6407   -0.4435 H   0  0  0  0  0  0  0  0  0  0  0  0
   -1.0434    1.3538    3.2940 H   0  0  0  0  0  0  0  0  0  0  0  0
   -1.8243    2.3250    2.0227 H   0  0  0  0  0  0  0  0  0  0  0  0
    1.1037    2.6061    2.9737 H   0  0  0  0  0  0  0  0  0  0  0  0
   -0.2712    3.7034    3.3581 H   0  0  0  0  0  0  0  0  0  0  0  0
    0.7510    3.2084   -1.1567 H   0  0  0  0  0  0  0  0  0  0  0  0
    1.8143    2.3238   -0.0164 H   0  0  0  0  0  0  0  0  0  0  0  0
    0.0449    0.8374   -0.9129 H   0  0  0  0  0  0  0  0  0  0  0  0
   -1.2288    1.9807   -0.4303 H   0  0  0  0  0  0  0  0  0  0  0  0
    3.8121    0.2543   -0.8733 H   0  0  0  0  0  0  0  0  0  0  0  0
  1  2  1  0
  2  3  1  0
  3  4  2  0
  4  5  1  0
  5  6  2  0
  6  7  1  0
  7  8  1  0
  8  9  2  0
  9 10  1  0
 10 11  1  0
 11 12  1  0
 12 13  1  0
 13 14  1  0
 14 15  2  0
 14 16  1  0
 16 17  1  0
 17 18  1  0
 17 19  1  0
 19 20  1  0
 20 21  2  0
 21 22  1  0
 22 23  2  0
 23 24  1  0
 24 25  2  0
 25 26  1  0
 12 27  1  0
 27 28  1  0
 28 29  1  0
 29 30  2  0
 29 31  2  0
 29 32  1  0
 32 33  1  0
 11 34  2  0
  7 35  2  0
 35  3  1  0
 34  8  1  0
 33 12  1  0
 25 20  1  0
  1 36  1  0
  1 37  1  0
  1 38  1  0
  4 39  1  0
  5 40  1  0
  6 41  1  0
  9 42  1  0
 13 43  1  0
 16 44  1  0
 16 45  1  0
 17 46  1  1
 18 47  1  0
 18 48  1  0
 19 49  1  0
 19 50  1  0
 21 51  1  0
 22 52  1  0
 23 53  1  0
 24 54  1  0
 27 55  1  0
 27 56  1  0
 28 57  1  0
 28 58  1  0
 32 59  1  0
 32 60  1  0
 33 61  1  0
 33 62  1  0
 35 63  1  0
M  END
$$$$
