
     RDKit          3D

 57 59  0  0  0  0  0  0  0  0999 V2000
   -3.2072    4.9760    0.1922 C   0  0  0  0  0  0  0  0  0  0  0  0
   -2.4905    3.8001    0.6844 C   0  0  0  0  0  0  0  0  0  0  0  0
   -1.9018    2.8286    1.0869 C   0  0  0  0  0  0  0  0  0  0  0  0
   -1.1894    1.6406    1.5690 C   0  0  0  0  0  0  0  0  0  0  0  0
   -0.5038    0.9706    0.4466 N   0  0  0  0  0  0  0  0  0  0  0  0
   -1.1229   -0.0426   -0.2417 C   0  0  0  0  0  0  0  0  0  0  0  0
   -2.4531   -0.4685    0.0907 N   0  0  0  0  0  0  0  0  0  0  0  0
   -3.6079    0.3154   -0.3594 C   0  0  0  0  0  0  0  0  0  0  0  0
   -4.6574   -0.6136   -0.9777 C   0  0  0  0  0  0  0  0  0  0  0  0
   -5.0030   -1.8286   -0.0838 C   0  0  0  0  0  0  0  0  0  0  0  0
   -4.1186   -1.9461    1.1797 C   0  0  1  0  0  0  0  0  0  0  0  0
   -4.2907   -3.2468    1.8299 N   0  0  0  0  0  0  0  0  0  0  0  0
   -2.6374   -1.7183    0.8379 C   0  0  0  0  0  0  0  0  0  0  0  0
   -0.4627   -0.6810   -1.2861 C   0  0  0  0  0  0  0  0  0  0  0  0
    0.8149   -0.2673   -1.6356 C   0  0  0  0  0  0  0  0  0  0  0  0
    1.4113   -0.8587   -2.5776 O   0  0  0  0  0  0  0  0  0  0  0  0
    1.4142    0.7663   -0.9660 N   0  0  0  0  0  0  0  0  0  0  0  0
    2.7827    1.1829   -1.3464 C   0  0  0  0  0  0  0  0  0  0  0  0
    3.8436    0.2136   -0.8447 C   0  0  0  0  0  0  0  0  0  0  0  0
    3.6071   -0.5392    0.3255 C   0  0  0  0  0  0  0  0  0  0  0  0
    4.5390   -1.4881    0.7798 C   0  0  0  0  0  0  0  0  0  0  0  0
    4.3208   -2.2700    1.9245 O   0  0  0  0  0  0  0  0  0  0  0  0
    3.1517   -2.2039    2.7353 C   0  0  0  0  0  0  0  0  0  0  0  0
    5.7261   -1.6695    0.0723 C   0  0  0  0  0  0  0  0  0  0  0  0
    6.0012   -0.9035   -1.0589 C   0  0  0  0  0  0  0  0  0  0  0  0
    5.0872    0.0611   -1.5174 C   0  0  0  0  0  0  0  0  0  0  0  0
    5.4808    0.8995   -2.6755 C   0  0  0  0  0  0  0  0  0  0  0  0
    6.2177    0.4201   -3.5793 O   0  0  0  0  0  0  0  0  0  0  0  0
    5.0894    2.2332   -2.7535 O   0  0  0  0  0  0  0  0  0  0  0  0
    0.7536    1.3827    0.0712 C   0  0  0  0  0  0  0  0  0  0  0  0
    1.3104    2.3325    0.6922 O   0  0  0  0  0  0  0  0  0  0  0  0
   -3.6153    5.5471    1.0513 H   0  0  0  0  0  0  0  0  0  0  0  0
   -2.5104    5.6199   -0.3828 H   0  0  0  0  0  0  0  0  0  0  0  0
   -4.0398    4.6523   -0.4658 H   0  0  0  0  0  0  0  0  0  0  0  0
   -1.9090    0.9613    2.0718 H   0  0  0  0  0  0  0  0  0  0  0  0
   -0.4639    1.9451    2.3534 H   0  0  0  0  0  0  0  0  0  0  0  0
   -3.2993    1.0725   -1.1139 H   0  0  0  0  0  0  0  0  0  0  0  0
   -4.0500    0.8541    0.5061 H   0  0  0  0  0  0  0  0  0  0  0  0
   -4.2661   -0.9805   -1.9522 H   0  0  0  0  0  0  0  0  0  0  0  0
   -5.5787   -0.0294   -1.1912 H   0  0  0  0  0  0  0  0  0  0  0  0
   -6.0666   -1.7589    0.2330 H   0  0  0  0  0  0  0  0  0  0  0  0
   -4.9052   -2.7538   -0.6935 H   0  0  0  0  0  0  0  0  0  0  0  0
   -4.4288   -1.1562    1.9005 H   0  0  0  0  0  0  0  0  0  0  0  0
   -5.2947   -3.3520    2.1041 H   0  0  0  0  0  0  0  0  0  0  0  0
   -4.0725   -4.0096    1.1477 H   0  0  0  0  0  0  0  0  0  0  0  0
   -2.0496   -1.6747    1.7806 H   0  0  0  0  0  0  0  0  0  0  0  0
   -2.2579   -2.5666    0.2274 H   0  0  0  0  0  0  0  0  0  0  0  0
   -0.9445   -1.4885   -1.8252 H   0  0  0  0  0  0  0  0  0  0  0  0
    2.8230    1.2544   -2.4545 H   0  0  0  0  0  0  0  0  0  0  0  0
    3.0227    2.1992   -0.9684 H   0  0  0  0  0  0  0  0  0  0  0  0
    2.6904   -0.3976    0.8775 H   0  0  0  0  0  0  0  0  0  0  0  0
    3.2444   -2.9339    3.5652 H   0  0  0  0  0  0  0  0  0  0  0  0
    3.0436   -1.1866    3.1674 H   0  0  0  0  0  0  0  0  0  0  0  0
    2.2543   -2.4615    2.1337 H   0  0  0  0  0  0  0  0  0  0  0  0
    6.4505   -2.3991    0.4120 H   0  0  0  0  0  0  0  0  0  0  0  0
    6.9492   -1.0474   -1.5631 H   0  0  0  0  0  0  0  0  0  0  0  0
    5.3694    2.8130   -3.5355 H   0  0  0  0  0  0  0  0  0  0  0  0
  1  2  1  0
  2  3  3  0
  3  4  1  0
  4  5  1  0
  5  6  1  0
  6  7  1  0
  7  8  1  0
  8  9  1  0
  9 10  1  0
 10 11  1  0
 11 12  1  0
 11 13  1  0
  6 14  2  0
 14 15  1  0
 15 16  2  0
 15 17  1  0
 17 18  1  0
 18 19  1  0
 19 20  2  0
 20 21  1  0
 21 22  1  0
 22 23  1  0
 21 24  2  0
 24 25  1  0
 25 26  2  0
 26 27  1  0
 27 28  2  0
 27 29  1  0
 17 30  1  0
 30 31  2  0
 30  5  1  0
 13  7  1  0
 26 19  1  0
  1 32  1  0
  1 33  1  0
  1 34  1  0
  4 35  1  0
  4 36  1  0
  8 37  1  0
  8 38  1  0
  9 39  1  0
  9 40  1  0
 10 41  1  0
 10 42  1  0
 11 43  1  1
 12 44  1  0
 12 45  1  0
 13 46  1  0
 13 47  1  0
 14 48  1  0
 18 49  1  0
 18 50  1  0
 20 51  1  0
 23 52  1  0
 23 53  1  0
 23 54  1  0
 24 55  1  0
 25 56  1  0
 29 57  1  0
M  END
$$$$
