
     RDKit          3D

 40 41  0  0  0  0  0  0  0  0999 V2000
    1.4278   -0.2969   -2.9234 N   0  0  0  0  0  0  0  0  0  0  0  0
    0.5680   -0.6671   -1.7909 C   0  0  2  0  0  0  0  0  0  0  0  0
   -0.8157   -0.0412   -1.9034 C   0  0  0  0  0  0  0  0  0  0  0  0
   -1.0814    0.7026   -2.8881 O   0  0  0  0  0  0  0  0  0  0  0  0
   -1.8173   -0.2307   -0.8820 N   0  0  0  0  0  0  0  0  0  0  0  0
   -2.0364   -1.5390   -0.2438 C   0  0  0  0  0  0  0  0  0  0  0  0
   -2.2043   -1.3985    1.2814 C   0  0  0  0  0  0  0  0  0  0  0  0
   -2.8320   -0.0593    1.7141 C   0  0  0  0  0  0  0  0  0  0  0  0
   -3.6558    0.5755    0.5922 C   0  0  0  0  0  0  0  0  0  0  0  0
   -2.7572    0.8702   -0.6159 C   0  0  0  0  0  0  0  0  0  0  0  0
    1.2492   -0.3079   -0.4408 C   0  0  0  0  0  0  0  0  0  0  0  0
    2.5405   -1.1382   -0.2148 C   0  0  0  0  0  0  0  0  0  0  0  0
    3.5140   -0.4945    0.7955 C   0  0  0  0  0  0  0  0  0  0  0  0
    2.7820    0.3762    1.8225 C   0  0  0  0  0  0  0  0  0  0  0  0
    2.0132    1.5316    1.1488 C   0  0  0  0  0  0  0  0  0  0  0  0
    1.5353    1.2010   -0.2803 C   0  0  0  0  0  0  0  0  0  0  0  0
    1.4434    0.7421   -3.0414 H   0  0  0  0  0  0  0  0  0  0  0  0
    1.0235   -0.7037   -3.7986 H   0  0  0  0  0  0  0  0  0  0  0  0
    0.4435   -1.7704   -1.8262 H   0  0  0  0  0  0  0  0  0  0  0  0
   -1.2126   -2.2497   -0.4497 H   0  0  0  0  0  0  0  0  0  0  0  0
   -2.9596   -1.9867   -0.6717 H   0  0  0  0  0  0  0  0  0  0  0  0
   -1.2143   -1.5050    1.7754 H   0  0  0  0  0  0  0  0  0  0  0  0
   -2.8392   -2.2361    1.6442 H   0  0  0  0  0  0  0  0  0  0  0  0
   -3.4790   -0.2210    2.6033 H   0  0  0  0  0  0  0  0  0  0  0  0
   -2.0250    0.6470    2.0115 H   0  0  0  0  0  0  0  0  0  0  0  0
   -4.4759   -0.1144    0.2948 H   0  0  0  0  0  0  0  0  0  0  0  0
   -4.1160    1.5207    0.9528 H   0  0  0  0  0  0  0  0  0  0  0  0
   -2.1770    1.7958   -0.4057 H   0  0  0  0  0  0  0  0  0  0  0  0
   -3.3905    1.0510   -1.5111 H   0  0  0  0  0  0  0  0  0  0  0  0
    0.5458   -0.5886    0.3722 H   0  0  0  0  0  0  0  0  0  0  0  0
    2.2511   -2.1480    0.1510 H   0  0  0  0  0  0  0  0  0  0  0  0
    3.0878   -1.2843   -1.1711 H   0  0  0  0  0  0  0  0  0  0  0  0
    4.0835   -1.2908    1.3216 H   0  0  0  0  0  0  0  0  0  0  0  0
    4.2491    0.1378    0.2500 H   0  0  0  0  0  0  0  0  0  0  0  0
    3.5143    0.7913    2.5482 H   0  0  0  0  0  0  0  0  0  0  0  0
    2.0705   -0.2613    2.3927 H   0  0  0  0  0  0  0  0  0  0  0  0
    2.6632    2.4328    1.1073 H   0  0  0  0  0  0  0  0  0  0  0  0
    1.1343    1.7874    1.7802 H   0  0  0  0  0  0  0  0  0  0  0  0
    0.6249    1.7989   -0.5003 H   0  0  0  0  0  0  0  0  0  0  0  0
    2.3247    1.5081   -1.0005 H   0  0  0  0  0  0  0  0  0  0  0  0
  1  2  1  0
  2  3  1  0
  3  4  2  0
  3  5  1  0
  5  6  1  0
  6  7  1  0
  7  8  1  0
  8  9  1  0
  9 10  1  0
  2 11  1  0
 11 12  1  0
 12 13  1  0
 13 14  1  0
 14 15  1  0
 15 16  1  0
 10  5  1  0
 16 11  1  0
  1 17  1  0
  1 18  1  0
  2 19  1  1
  6 20  1  0
  6 21  1  0
  7 22  1  0
  7 23  1  0
  8 24  1  0
  8 25  1  0
  9 26  1  0
  9 27  1  0
 10 28  1  0
 10 29  1  0
 11 30  1  0
 12 31  1  0
 12 32  1  0
 13 33  1  0
 13 34  1  0
 14 35  1  0
 14 36  1  0
 15 37  1  0
 15 38  1  0
 16 39  1  0
 16 40  1  0
M  END
$$$$
