
     RDKit          3D

 43 44  0  0  0  0  0  0  0  0999 V2000
    6.7843    2.1924    0.4520 C   0  0  0  0  0  0  0  0  0  0  0  0
    7.0545    1.0189   -0.4836 C   0  0  0  0  0  0  0  0  0  0  0  0
    6.5223   -0.1916    0.0550 O   0  0  0  0  0  0  0  0  0  0  0  0
    5.1642   -0.5502    0.0749 C   0  0  0  0  0  0  0  0  0  0  0  0
    4.1631    0.2145   -0.5527 C   0  0  0  0  0  0  0  0  0  0  0  0
    2.8261   -0.1909   -0.4996 C   0  0  0  0  0  0  0  0  0  0  0  0
    2.4604   -1.3653    0.1838 C   0  0  0  0  0  0  0  0  0  0  0  0
    1.0472   -1.8158    0.2454 C   0  0  0  0  0  0  0  0  0  0  0  0
    0.8015   -3.0421    0.4158 O   0  0  0  0  0  0  0  0  0  0  0  0
   -0.0746   -0.8548    0.1377 C   0  0  0  0  0  0  0  0  0  0  0  0
   -1.3506   -1.2556    0.0415 C   0  0  0  0  0  0  0  0  0  0  0  0
   -2.4954   -0.3128   -0.0470 C   0  0  0  0  0  0  0  0  0  0  0  0
   -2.3502    0.9559   -0.6388 C   0  0  0  0  0  0  0  0  0  0  0  0
   -3.4362    1.8290   -0.7326 C   0  0  0  0  0  0  0  0  0  0  0  0
   -3.2076    3.4040   -1.4786 Cl  0  0  0  0  0  0  0  0  0  0  0  0
   -4.6936    1.4506   -0.2474 C   0  0  0  0  0  0  0  0  0  0  0  0
   -5.7597    2.3579   -0.3594 O   0  0  0  0  0  0  0  0  0  0  0  0
   -7.0873    2.1054    0.0894 C   0  0  0  0  0  0  0  0  0  0  0  0
   -4.8512    0.1780    0.3313 C   0  0  0  0  0  0  0  0  0  0  0  0
   -3.7610   -0.7093    0.4320 C   0  0  0  0  0  0  0  0  0  0  0  0
   -3.8999   -1.9834    1.0101 O   0  0  0  0  0  0  0  0  0  0  0  0
   -5.1148   -2.5096    1.5346 C   0  0  0  0  0  0  0  0  0  0  0  0
    3.4673   -2.1336    0.7935 C   0  0  0  0  0  0  0  0  0  0  0  0
    4.8029   -1.7260    0.7404 C   0  0  0  0  0  0  0  0  0  0  0  0
    5.6940    2.3605    0.5679 H   0  0  0  0  0  0  0  0  0  0  0  0
    7.2443    3.1137    0.0368 H   0  0  0  0  0  0  0  0  0  0  0  0
    7.2262    1.9886    1.4502 H   0  0  0  0  0  0  0  0  0  0  0  0
    6.6473    1.2152   -1.4979 H   0  0  0  0  0  0  0  0  0  0  0  0
    8.1538    0.9003   -0.5860 H   0  0  0  0  0  0  0  0  0  0  0  0
    4.4031    1.1189   -1.0930 H   0  0  0  0  0  0  0  0  0  0  0  0
    2.0869    0.4062   -1.0170 H   0  0  0  0  0  0  0  0  0  0  0  0
    0.1511    0.2013    0.1848 H   0  0  0  0  0  0  0  0  0  0  0  0
   -1.5713   -2.3161    0.0653 H   0  0  0  0  0  0  0  0  0  0  0  0
   -1.4012    1.2670   -1.0551 H   0  0  0  0  0  0  0  0  0  0  0  0
   -7.0921    1.9226    1.1847 H   0  0  0  0  0  0  0  0  0  0  0  0
   -7.7170    2.9931   -0.1248 H   0  0  0  0  0  0  0  0  0  0  0  0
   -7.5121    1.2309   -0.4473 H   0  0  0  0  0  0  0  0  0  0  0  0
   -5.8196   -0.1208    0.7029 H   0  0  0  0  0  0  0  0  0  0  0  0
   -5.8829   -2.5674    0.7348 H   0  0  0  0  0  0  0  0  0  0  0  0
   -5.4772   -1.8741    2.3701 H   0  0  0  0  0  0  0  0  0  0  0  0
   -4.9288   -3.5321    1.9221 H   0  0  0  0  0  0  0  0  0  0  0  0
    3.2209   -3.0459    1.3228 H   0  0  0  0  0  0  0  0  0  0  0  0
    5.5632   -2.3274    1.2225 H   0  0  0  0  0  0  0  0  0  0  0  0
  1  2  1  0
  2  3  1  0
  3  4  1  0
  4  5  2  0
  5  6  1  0
  6  7  2  0
  7  8  1  0
  8  9  2  0
  8 10  1  0
 10 11  2  0
 11 12  1  0
 12 13  2  0
 13 14  1  0
 14 15  1  0
 14 16  2  0
 16 17  1  0
 17 18  1  0
 16 19  1  0
 19 20  2  0
 20 21  1  0
 21 22  1  0
  7 23  1  0
 23 24  2  0
 24  4  1  0
 20 12  1  0
  1 25  1  0
  1 26  1  0
  1 27  1  0
  2 28  1  0
  2 29  1  0
  5 30  1  0
  6 31  1  0
 10 32  1  0
 11 33  1  0
 13 34  1  0
 18 35  1  0
 18 36  1  0
 18 37  1  0
 19 38  1  0
 22 39  1  0
 22 40  1  0
 22 41  1  0
 23 42  1  0
 24 43  1  0
M  END
$$$$
