
     RDKit          3D

 45 46  0  0  0  0  0  0  0  0999 V2000
   -1.5940   -2.9498    1.2271 N   0  0  0  0  0  0  0  0  0  0  0  0
   -1.2637   -1.6155    0.7217 C   0  0  1  0  0  0  0  0  0  0  0  0
    0.2553   -1.5180    0.4772 C   0  0  0  0  0  0  0  0  0  0  0  0
    0.7026   -0.0784    0.1530 C   0  0  0  0  0  0  0  0  0  0  0  0
    2.1358    0.0066   -0.1692 N   0  0  0  0  0  0  0  0  0  0  0  0
    2.9873   -0.1464    1.0170 C   0  0  0  0  0  0  0  0  0  0  0  0
    4.3904    0.2763    0.6824 C   0  0  0  0  0  0  0  0  0  0  0  0
    4.7631    1.6273    0.7755 C   0  0  0  0  0  0  0  0  0  0  0  0
    6.0579    2.0265    0.4297 C   0  0  0  0  0  0  0  0  0  0  0  0
    6.9858    1.0825   -0.0224 C   0  0  0  0  0  0  0  0  0  0  0  0
    8.6089    1.5853   -0.4578 Cl  0  0  0  0  0  0  0  0  0  0  0  0
    6.6159   -0.2620   -0.1330 C   0  0  0  0  0  0  0  0  0  0  0  0
    5.3219   -0.6641    0.2122 C   0  0  0  0  0  0  0  0  0  0  0  0
   -2.0534   -1.3252   -0.5435 C   0  0  0  0  0  0  0  0  0  0  0  0
   -1.8292   -2.0298   -1.5666 O   0  0  0  0  0  0  0  0  0  0  0  0
   -3.0705   -0.2994   -0.5970 N   0  0  0  0  0  0  0  0  0  0  0  0
   -4.0695   -0.3269   -1.6770 C   0  0  0  0  0  0  0  0  0  0  0  0
   -5.4200    0.1783   -1.1595 C   0  0  0  0  0  0  0  0  0  0  0  0
   -5.3290    1.5746   -0.5098 C   0  0  0  0  0  0  0  0  0  0  0  0
   -3.8935    2.0073   -0.1730 C   0  0  0  0  0  0  0  0  0  0  0  0
   -3.0501    0.8356    0.3421 C   0  0  0  0  0  0  0  0  0  0  0  0
   -2.6191   -2.9848    1.4346 H   0  0  0  0  0  0  0  0  0  0  0  0
   -1.3995   -3.6643    0.4875 H   0  0  0  0  0  0  0  0  0  0  0  0
   -1.5192   -0.8913    1.5222 H   0  0  0  0  0  0  0  0  0  0  0  0
    0.5496   -2.2002   -0.3505 H   0  0  0  0  0  0  0  0  0  0  0  0
    0.7742   -1.8597    1.3978 H   0  0  0  0  0  0  0  0  0  0  0  0
    0.1369    0.2883   -0.7297 H   0  0  0  0  0  0  0  0  0  0  0  0
    0.4540    0.5998    0.9991 H   0  0  0  0  0  0  0  0  0  0  0  0
    2.3810   -0.7363   -0.8658 H   0  0  0  0  0  0  0  0  0  0  0  0
    2.6110    0.4815    1.8555 H   0  0  0  0  0  0  0  0  0  0  0  0
    2.9886   -1.2039    1.3618 H   0  0  0  0  0  0  0  0  0  0  0  0
    4.0514    2.3699    1.1147 H   0  0  0  0  0  0  0  0  0  0  0  0
    6.3372    3.0693    0.5099 H   0  0  0  0  0  0  0  0  0  0  0  0
    7.3284   -0.9950   -0.4895 H   0  0  0  0  0  0  0  0  0  0  0  0
    5.0459   -1.7066    0.1120 H   0  0  0  0  0  0  0  0  0  0  0  0
   -3.7222    0.3081   -2.5206 H   0  0  0  0  0  0  0  0  0  0  0  0
   -4.2116   -1.3624   -2.0565 H   0  0  0  0  0  0  0  0  0  0  0  0
   -6.1512    0.2004   -1.9964 H   0  0  0  0  0  0  0  0  0  0  0  0
   -5.7981   -0.5480   -0.4064 H   0  0  0  0  0  0  0  0  0  0  0  0
   -5.9369    1.5784    0.4215 H   0  0  0  0  0  0  0  0  0  0  0  0
   -5.7736    2.3305   -1.1932 H   0  0  0  0  0  0  0  0  0  0  0  0
   -3.9167    2.8151    0.5900 H   0  0  0  0  0  0  0  0  0  0  0  0
   -3.4124    2.4213   -1.0865 H   0  0  0  0  0  0  0  0  0  0  0  0
   -2.0089    1.2004    0.4716 H   0  0  0  0  0  0  0  0  0  0  0  0
   -3.4405    0.5052    1.3288 H   0  0  0  0  0  0  0  0  0  0  0  0
  1  2  1  0
  2  3  1  0
  3  4  1  0
  4  5  1  0
  5  6  1  0
  6  7  1  0
  7  8  2  0
  8  9  1  0
  9 10  2  0
 10 11  1  0
 10 12  1  0
 12 13  2  0
  2 14  1  0
 14 15  2  0
 14 16  1  0
 16 17  1  0
 17 18  1  0
 18 19  1  0
 19 20  1  0
 20 21  1  0
 13  7  1  0
 21 16  1  0
  1 22  1  0
  1 23  1  0
  2 24  1  1
  3 25  1  0
  3 26  1  0
  4 27  1  0
  4 28  1  0
  5 29  1  0
  6 30  1  0
  6 31  1  0
  8 32  1  0
  9 33  1  0
 12 34  1  0
 13 35  1  0
 17 36  1  0
 17 37  1  0
 18 38  1  0
 18 39  1  0
 19 40  1  0
 19 41  1  0
 20 42  1  0
 20 43  1  0
 21 44  1  0
 21 45  1  0
M  END
$$$$
