
     RDKit          3D

 81 85  0  0  0  0  0  0  0  0999 V2000
   -1.5006   -3.0203    2.0282 C   0  0  0  0  0  0  0  0  0  0  0  0
   -2.4541   -1.9159    2.1266 C   0  0  0  0  0  0  0  0  0  0  0  0
   -3.2336   -1.0000    2.2029 C   0  0  0  0  0  0  0  0  0  0  0  0
   -4.1679    0.1274    2.2831 C   0  0  0  0  0  0  0  0  0  0  0  0
   -4.0418    0.9653    1.0884 N   0  0  0  0  0  0  0  0  0  0  0  0
   -4.9048    1.0675    0.0418 C   0  0  0  0  0  0  0  0  0  0  0  0
   -6.1242    0.3192   -0.0626 N   0  0  0  0  0  0  0  0  0  0  0  0
   -7.3470    1.0125   -0.4767 C   0  0  0  0  0  0  0  0  0  0  0  0
   -8.5702    0.3471    0.1603 C   0  0  0  0  0  0  0  0  0  0  0  0
   -8.5730   -1.1632   -0.1039 C   0  0  0  0  0  0  0  0  0  0  0  0
   -7.2712   -1.8121    0.4003 C   0  0  1  0  0  0  0  0  0  0  0  0
   -7.2718   -3.2418    0.0895 N   0  0  0  0  0  0  0  0  0  0  0  0
   -6.0571   -1.1336   -0.2547 C   0  0  0  0  0  0  0  0  0  0  0  0
   -4.5055    1.9459   -0.9142 N   0  0  0  0  0  0  0  0  0  0  0  0
   -3.3298    2.3911   -0.4294 C   0  0  0  0  0  0  0  0  0  0  0  0
   -3.0468    1.8125    0.7617 C   0  0  0  0  0  0  0  0  0  0  0  0
   -1.8574    2.1057    1.4186 C   0  0  0  0  0  0  0  0  0  0  0  0
   -1.5939    1.5763    2.5327 O   0  0  0  0  0  0  0  0  0  0  0  0
   -0.9731    2.9722    0.8147 N   0  0  0  0  0  0  0  0  0  0  0  0
    0.3362    3.2501    1.4422 C   0  0  0  0  0  0  0  0  0  0  0  0
    1.4479    2.3819    0.8309 C   0  0  0  0  0  0  0  0  0  0  0  0
    1.2484    0.8807    1.1389 C   0  0  0  0  0  0  0  0  0  0  0  0
    2.3618    0.0205    0.6843 N   0  0  0  0  0  0  0  0  0  0  0  0
    3.6624    0.2837    1.3510 C   0  0  0  0  0  0  0  0  0  0  0  0
    4.7113    0.8690    0.3917 C   0  0  0  0  0  0  0  0  0  0  0  0
    4.9415   -0.0416   -0.8415 C   0  0  0  0  0  0  0  0  0  0  0  0
    6.1377   -0.9426   -0.6562 C   0  0  0  0  0  0  0  0  0  0  0  0
    6.2708   -1.5910    0.4179 O   0  0  0  0  0  0  0  0  0  0  0  0
    7.0649   -1.1317   -1.7370 N   0  0  0  0  0  0  0  0  0  0  0  0
    8.3398   -1.7822   -1.5985 C   0  0  0  0  0  0  0  0  0  0  0  0
    9.0992   -1.6677   -0.4186 C   0  0  0  0  0  0  0  0  0  0  0  0
   10.3470   -2.2914   -0.3200 C   0  0  0  0  0  0  0  0  0  0  0  0
   10.8531   -3.0217   -1.3982 C   0  0  0  0  0  0  0  0  0  0  0  0
   10.1159   -3.1222   -2.5807 C   0  0  0  0  0  0  0  0  0  0  0  0
    8.8683   -2.4993   -2.6838 C   0  0  0  0  0  0  0  0  0  0  0  0
    3.6945   -0.8808   -1.2000 C   0  0  0  0  0  0  0  0  0  0  0  0
    2.4135   -0.1539   -0.7848 C   0  0  0  0  0  0  0  0  0  0  0  0
   -1.2863    3.5459   -0.4077 C   0  0  0  0  0  0  0  0  0  0  0  0
   -0.4606    4.3233   -0.9654 O   0  0  0  0  0  0  0  0  0  0  0  0
   -2.4863    3.2743   -1.0282 N   0  0  0  0  0  0  0  0  0  0  0  0
   -2.8095    3.8473   -2.3417 C   0  0  0  0  0  0  0  0  0  0  0  0
   -1.8687   -3.7619    1.2896 H   0  0  0  0  0  0  0  0  0  0  0  0
   -0.5155   -2.6288    1.6998 H   0  0  0  0  0  0  0  0  0  0  0  0
   -1.3937   -3.5066    3.0196 H   0  0  0  0  0  0  0  0  0  0  0  0
   -5.2025   -0.2609    2.3827 H   0  0  0  0  0  0  0  0  0  0  0  0
   -3.9488    0.7270    3.1909 H   0  0  0  0  0  0  0  0  0  0  0  0
   -7.4330    0.9814   -1.5848 H   0  0  0  0  0  0  0  0  0  0  0  0
   -7.3147    2.0778   -0.1580 H   0  0  0  0  0  0  0  0  0  0  0  0
   -9.4958    0.7983   -0.2574 H   0  0  0  0  0  0  0  0  0  0  0  0
   -8.5604    0.5313    1.2571 H   0  0  0  0  0  0  0  0  0  0  0  0
   -8.6917   -1.3491   -1.1945 H   0  0  0  0  0  0  0  0  0  0  0  0
   -9.4428   -1.6175    0.4185 H   0  0  0  0  0  0  0  0  0  0  0  0
   -7.2048   -1.6773    1.5046 H   0  0  0  0  0  0  0  0  0  0  0  0
   -8.0708   -3.6879    0.5966 H   0  0  0  0  0  0  0  0  0  0  0  0
   -6.4044   -3.6659    0.4925 H   0  0  0  0  0  0  0  0  0  0  0  0
   -5.1247   -1.5464    0.1847 H   0  0  0  0  0  0  0  0  0  0  0  0
   -6.0415   -1.3552   -1.3446 H   0  0  0  0  0  0  0  0  0  0  0  0
    0.3019    3.0972    2.5431 H   0  0  0  0  0  0  0  0  0  0  0  0
    0.6002    4.3219    1.3062 H   0  0  0  0  0  0  0  0  0  0  0  0
    2.4130    2.7319    1.2505 H   0  0  0  0  0  0  0  0  0  0  0  0
    1.4737    2.5553   -0.2635 H   0  0  0  0  0  0  0  0  0  0  0  0
    1.1196    0.7451    2.2351 H   0  0  0  0  0  0  0  0  0  0  0  0
    0.3068    0.5286    0.6647 H   0  0  0  0  0  0  0  0  0  0  0  0
    3.5488    0.9564    2.2293 H   0  0  0  0  0  0  0  0  0  0  0  0
    4.0464   -0.6778    1.7528 H   0  0  0  0  0  0  0  0  0  0  0  0
    4.3530    1.8628    0.0457 H   0  0  0  0  0  0  0  0  0  0  0  0
    5.6624    1.0480    0.9400 H   0  0  0  0  0  0  0  0  0  0  0  0
    5.1539    0.6342   -1.7001 H   0  0  0  0  0  0  0  0  0  0  0  0
    6.7581   -0.8533   -2.6967 H   0  0  0  0  0  0  0  0  0  0  0  0
    8.7434   -1.0779    0.4155 H   0  0  0  0  0  0  0  0  0  0  0  0
   10.9260   -2.2010    0.5900 H   0  0  0  0  0  0  0  0  0  0  0  0
   11.8197   -3.5024   -1.3204 H   0  0  0  0  0  0  0  0  0  0  0  0
   10.5121   -3.6811   -3.4187 H   0  0  0  0  0  0  0  0  0  0  0  0
    8.3074   -2.5829   -3.6063 H   0  0  0  0  0  0  0  0  0  0  0  0
    3.6765   -1.0745   -2.2948 H   0  0  0  0  0  0  0  0  0  0  0  0
    3.7176   -1.8664   -0.6828 H   0  0  0  0  0  0  0  0  0  0  0  0
    2.3742    0.8212   -1.3136 H   0  0  0  0  0  0  0  0  0  0  0  0
    1.5388   -0.7569   -1.1109 H   0  0  0  0  0  0  0  0  0  0  0  0
   -3.9069    3.8680   -2.5140 H   0  0  0  0  0  0  0  0  0  0  0  0
   -2.3291    3.2426   -3.1394 H   0  0  0  0  0  0  0  0  0  0  0  0
   -2.4512    4.8965   -2.4111 H   0  0  0  0  0  0  0  0  0  0  0  0
  1  2  1  0
  2  3  3  0
  3  4  1  0
  4  5  1  0
  5  6  1  0
  6  7  1  0
  7  8  1  0
  8  9  1  0
  9 10  1  0
 10 11  1  0
 11 12  1  0
 11 13  1  0
  6 14  2  0
 14 15  1  0
 15 16  2  0
 16 17  1  0
 17 18  2  0
 17 19  1  0
 19 20  1  0
 20 21  1  0
 21 22  1  0
 22 23  1  0
 23 24  1  0
 24 25  1  0
 25 26  1  0
 26 27  1  0
 27 28  2  0
 27 29  1  0
 29 30  1  0
 30 31  2  0
 31 32  1  0
 32 33  2  0
 33 34  1  0
 34 35  2  0
 26 36  1  0
 36 37  1  0
 19 38  1  0
 38 39  2  0
 38 40  1  0
 40 41  1  0
 16  5  1  0
 37 23  1  0
 13  7  1  0
 40 15  1  0
 35 30  1  0
  1 42  1  0
  1 43  1  0
  1 44  1  0
  4 45  1  0
  4 46  1  0
  8 47  1  0
  8 48  1  0
  9 49  1  0
  9 50  1  0
 10 51  1  0
 10 52  1  0
 11 53  1  1
 12 54  1  0
 12 55  1  0
 13 56  1  0
 13 57  1  0
 20 58  1  0
 20 59  1  0
 21 60  1  0
 21 61  1  0
 22 62  1  0
 22 63  1  0
 24 64  1  0
 24 65  1  0
 25 66  1  0
 25 67  1  0
 26 68  1  0
 29 69  1  0
 31 70  1  0
 32 71  1  0
 33 72  1  0
 34 73  1  0
 35 74  1  0
 36 75  1  0
 36 76  1  0
 37 77  1  0
 37 78  1  0
 41 79  1  0
 41 80  1  0
 41 81  1  0
M  END
$$$$
