
     RDKit          3D

 49 51  0  0  0  0  0  0  0  0999 V2000
   -6.0420    2.1757   -0.9938 N   0  0  0  0  0  0  0  0  0  0  0  0
   -4.9210    1.9130   -0.8771 C   0  0  0  0  0  0  0  0  0  0  0  0
   -3.4936    1.5784   -0.7281 C   0  0  2  0  0  0  0  0  0  0  0  0
   -2.8688    1.2461   -2.0857 C   0  0  0  0  0  0  0  0  0  0  0  0
   -2.0179    0.0047   -1.8510 C   0  0  2  0  0  0  0  0  0  0  0  0
   -2.0715   -0.8528   -2.9371 F   0  0  0  0  0  0  0  0  0  0  0  0
   -2.5864   -0.6556   -0.6039 C   0  0  0  0  0  0  0  0  0  0  0  0
   -3.3198    0.3885    0.1009 N   0  0  0  0  0  0  0  0  0  0  0  0
   -3.7431    0.3433    1.4878 C   0  0  0  0  0  0  0  0  0  0  0  0
   -4.4153    1.3060    1.9492 O   0  0  0  0  0  0  0  0  0  0  0  0
   -3.3588   -0.7567    2.4630 C   0  0  1  0  0  0  0  0  0  0  0  0
   -3.2287   -2.0626    1.8160 N   0  0  0  0  0  0  0  0  0  0  0  0
   -2.0901   -0.3880    3.2642 C   0  0  0  0  0  0  0  0  0  0  0  0
   -0.8596   -0.2412    2.4051 C   0  0  0  0  0  0  0  0  0  0  0  0
   -0.5517    0.9942    1.8137 C   0  0  0  0  0  0  0  0  0  0  0  0
    0.5507    1.1142    0.9641 C   0  0  0  0  0  0  0  0  0  0  0  0
    1.3636    0.0081    0.6933 C   0  0  0  0  0  0  0  0  0  0  0  0
    2.4474    0.1773   -0.1802 O   0  0  0  0  0  0  0  0  0  0  0  0
    3.3389   -0.8633   -0.5697 C   0  0  0  0  0  0  0  0  0  0  0  0
    4.3483   -0.3112   -1.5326 C   0  0  0  0  0  0  0  0  0  0  0  0
    4.0645   -0.2696   -2.9077 C   0  0  0  0  0  0  0  0  0  0  0  0
    4.9895    0.2804   -3.8009 C   0  0  0  0  0  0  0  0  0  0  0  0
    6.1960    0.8027   -3.3267 C   0  0  0  0  0  0  0  0  0  0  0  0
    6.4775    0.7805   -1.9578 C   0  0  0  0  0  0  0  0  0  0  0  0
    5.5552    0.2315   -1.0612 C   0  0  0  0  0  0  0  0  0  0  0  0
    1.0660   -1.2282    1.2982 C   0  0  0  0  0  0  0  0  0  0  0  0
   -0.0380   -1.3496    2.1474 C   0  0  0  0  0  0  0  0  0  0  0  0
   -2.9583    2.4343   -0.2619 H   0  0  0  0  0  0  0  0  0  0  0  0
   -2.2459    2.0895   -2.4560 H   0  0  0  0  0  0  0  0  0  0  0  0
   -3.6459    1.0161   -2.8503 H   0  0  0  0  0  0  0  0  0  0  0  0
   -0.9623    0.3061   -1.6689 H   0  0  0  0  0  0  0  0  0  0  0  0
   -1.7529   -1.0541    0.0027 H   0  0  0  0  0  0  0  0  0  0  0  0
   -3.2842   -1.4762   -0.8773 H   0  0  0  0  0  0  0  0  0  0  0  0
   -4.1860   -0.8340    3.2065 H   0  0  0  0  0  0  0  0  0  0  0  0
   -4.1554   -2.3134    1.4000 H   0  0  0  0  0  0  0  0  0  0  0  0
   -3.0395   -2.7807    2.5527 H   0  0  0  0  0  0  0  0  0  0  0  0
   -2.2708    0.5606    3.8166 H   0  0  0  0  0  0  0  0  0  0  0  0
   -1.9108   -1.1636    4.0409 H   0  0  0  0  0  0  0  0  0  0  0  0
   -1.1768    1.8597    1.9949 H   0  0  0  0  0  0  0  0  0  0  0  0
    0.7682    2.0696    0.5038 H   0  0  0  0  0  0  0  0  0  0  0  0
    3.8524   -1.2738    0.3272 H   0  0  0  0  0  0  0  0  0  0  0  0
    2.7681   -1.6865   -1.0527 H   0  0  0  0  0  0  0  0  0  0  0  0
    3.1287   -0.6617   -3.2868 H   0  0  0  0  0  0  0  0  0  0  0  0
    4.7690    0.3053   -4.8603 H   0  0  0  0  0  0  0  0  0  0  0  0
    6.9102    1.2294   -4.0191 H   0  0  0  0  0  0  0  0  0  0  0  0
    7.4087    1.1925   -1.5908 H   0  0  0  0  0  0  0  0  0  0  0  0
    5.7811    0.2299   -0.0020 H   0  0  0  0  0  0  0  0  0  0  0  0
    1.6744   -2.1023    1.1118 H   0  0  0  0  0  0  0  0  0  0  0  0
   -0.2629   -2.3122    2.5896 H   0  0  0  0  0  0  0  0  0  0  0  0
  1  2  3  0
  2  3  1  0
  3  4  1  0
  4  5  1  0
  5  6  1  0
  5  7  1  0
  7  8  1  0
  8  9  1  0
  9 10  2  0
  9 11  1  0
 11 12  1  0
 11 13  1  0
 13 14  1  0
 14 15  2  0
 15 16  1  0
 16 17  2  0
 17 18  1  0
 18 19  1  0
 19 20  1  0
 20 21  2  0
 21 22  1  0
 22 23  2  0
 23 24  1  0
 24 25  2  0
 17 26  1  0
 26 27  2  0
  8  3  1  0
 27 14  1  0
 25 20  1  0
  3 28  1  1
  4 29  1  0
  4 30  1  0
  5 31  1  1
  7 32  1  0
  7 33  1  0
 11 34  1  1
 12 35  1  0
 12 36  1  0
 13 37  1  0
 13 38  1  0
 15 39  1  0
 16 40  1  0
 19 41  1  0
 19 42  1  0
 21 43  1  0
 22 44  1  0
 23 45  1  0
 24 46  1  0
 25 47  1  0
 26 48  1  0
 27 49  1  0
M  END
$$$$
