
     RDKit          3D

 48 49  0  0  0  0  0  0  0  0999 V2000
    1.8114    0.1047    2.2217 C   0  0  0  0  0  0  0  0  0  0  0  0
    2.2078   -0.6452    0.9476 C   0  0  2  0  0  0  0  0  0  0  0  0
    3.7022   -0.6598    0.8000 C   0  0  0  0  0  0  0  0  0  0  0  0
    4.5577   -1.3481    1.5800 N   0  0  0  0  0  0  0  0  0  0  0  0
    5.7770   -1.0953    1.1201 N   0  0  0  0  0  0  0  0  0  0  0  0
    5.6420   -0.2576    0.0700 C   0  0  0  0  0  0  0  0  0  0  0  0
    6.7890    0.2561   -0.7453 C   0  0  0  0  0  0  0  0  0  0  0  0
    6.5913   -0.0567   -2.0772 F   0  0  0  0  0  0  0  0  0  0  0  0
    6.8784    1.6282   -0.6049 F   0  0  0  0  0  0  0  0  0  0  0  0
    7.9728   -0.3187   -0.3192 F   0  0  0  0  0  0  0  0  0  0  0  0
    4.3477    0.0483   -0.1391 N   0  0  0  0  0  0  0  0  0  0  0  0
    3.7200    0.8149   -1.2144 C   0  0  0  0  0  0  0  0  0  0  0  0
    2.2813    1.1748   -0.8218 C   0  0  0  0  0  0  0  0  0  0  0  0
    1.6086   -0.0010   -0.2393 N   0  0  0  0  0  0  0  0  0  0  0  0
    0.4962   -0.6039   -0.9321 C   0  0  0  0  0  0  0  0  0  0  0  0
    0.4475   -0.5576   -2.1916 O   0  0  0  0  0  0  0  0  0  0  0  0
   -0.6443   -1.2524   -0.1917 C   0  0  0  0  0  0  0  0  0  0  0  0
   -1.9430   -0.4248   -0.3161 C   0  0  2  0  0  0  0  0  0  0  0  0
   -1.8043    0.8879    0.3248 N   0  0  0  0  0  0  0  0  0  0  0  0
   -3.1253   -1.1899    0.3078 C   0  0  0  0  0  0  0  0  0  0  0  0
   -4.4290   -0.4592    0.0968 C   0  0  0  0  0  0  0  0  0  0  0  0
   -5.1163   -0.5961   -1.1215 C   0  0  0  0  0  0  0  0  0  0  0  0
   -6.3109    0.0966   -1.3413 C   0  0  0  0  0  0  0  0  0  0  0  0
   -6.9675   -0.0457   -2.5192 F   0  0  0  0  0  0  0  0  0  0  0  0
   -6.8251    0.9372   -0.3497 C   0  0  0  0  0  0  0  0  0  0  0  0
   -7.9828    1.6107   -0.5620 F   0  0  0  0  0  0  0  0  0  0  0  0
   -6.1434    1.0877    0.8611 C   0  0  0  0  0  0  0  0  0  0  0  0
   -4.9480    0.3973    1.0867 C   0  0  0  0  0  0  0  0  0  0  0  0
   -4.2987    0.5671    2.2664 F   0  0  0  0  0  0  0  0  0  0  0  0
    0.6878    0.0000    0.0000 Cl  0  0  0  0  0  0  0  0  0  0  0  0
    0.7076    0.1512    2.3147 H   0  0  0  0  0  0  0  0  0  0  0  0
    2.2100    1.1413    2.2105 H   0  0  0  0  0  0  0  0  0  0  0  0
    2.2129   -0.4219    3.1137 H   0  0  0  0  0  0  0  0  0  0  0  0
    1.8724   -1.7021    1.0258 H   0  0  0  0  0  0  0  0  0  0  0  0
    3.7062    0.1989   -2.1390 H   0  0  0  0  0  0  0  0  0  0  0  0
    4.2960    1.7444   -1.4093 H   0  0  0  0  0  0  0  0  0  0  0  0
    2.3026    1.9919   -0.0694 H   0  0  0  0  0  0  0  0  0  0  0  0
    1.7351    1.5616   -1.7093 H   0  0  0  0  0  0  0  0  0  0  0  0
   -0.8049   -2.2613   -0.6300 H   0  0  0  0  0  0  0  0  0  0  0  0
   -0.4035   -1.3985    0.8802 H   0  0  0  0  0  0  0  0  0  0  0  0
   -2.1640   -0.2737   -1.3973 H   0  0  0  0  0  0  0  0  0  0  0  0
   -1.0905    1.4509   -0.1917 H   0  0  0  0  0  0  0  0  0  0  0  0
   -1.4647    0.7643    1.3062 H   0  0  0  0  0  0  0  0  0  0  0  0
   -3.2010   -2.1985   -0.1553 H   0  0  0  0  0  0  0  0  0  0  0  0
   -2.9416   -1.3522    1.3926 H   0  0  0  0  0  0  0  0  0  0  0  0
   -4.7241   -1.2386   -1.9004 H   0  0  0  0  0  0  0  0  0  0  0  0
   -6.5406    1.7431    1.6256 H   0  0  0  0  0  0  0  0  0  0  0  0
   -0.6878    0.0000    0.0000 H   0  0  0  0  0  0  0  0  0  0  0  0
  1  2  1  0
  2  3  1  0
  3  4  2  0
  4  5  1  0
  5  6  2  0
  6  7  1  0
  7  8  1  0
  7  9  1  0
  7 10  1  0
  6 11  1  0
 11 12  1  0
 12 13  1  0
 13 14  1  0
 14 15  1  0
 15 16  2  0
 15 17  1  0
 17 18  1  0
 18 19  1  0
 18 20  1  0
 20 21  1  0
 21 22  2  0
 22 23  1  0
 23 24  1  0
 23 25  2  0
 25 26  1  0
 25 27  1  0
 27 28  2  0
 28 29  1  0
 14  2  1  0
 28 21  1  0
 11  3  1  0
  1 31  1  0
  1 32  1  0
  1 33  1  0
  2 34  1  1
 12 35  1  0
 12 36  1  0
 13 37  1  0
 13 38  1  0
 17 39  1  0
 17 40  1  0
 18 41  1  6
 19 42  1  0
 19 43  1  0
 20 44  1  0
 20 45  1  0
 22 46  1  0
 27 47  1  0
 30 48  1  0
M  END
$$$$
