
     RDKit          3D

 33 35  0  0  0  0  0  0  0  0999 V2000
    2.2094   -2.9029   -0.3974 O   0  0  0  0  0  0  0  0  0  0  0  0
    1.7400   -1.7435   -0.2562 C   0  0  0  0  0  0  0  0  0  0  0  0
    0.3460   -1.5814   -0.2113 C   0  0  0  0  0  0  0  0  0  0  0  0
   -0.5063   -2.6813   -0.3424 O   0  0  0  0  0  0  0  0  0  0  0  0
   -0.1843   -0.2981    0.0069 C   0  0  0  0  0  0  0  0  0  0  0  0
   -1.6429   -0.0442    0.0422 C   0  0  0  0  0  0  0  0  0  0  0  0
   -2.5076   -0.6155   -0.9066 C   0  0  0  0  0  0  0  0  0  0  0  0
   -3.8825   -0.3450   -0.8715 C   0  0  0  0  0  0  0  0  0  0  0  0
   -4.7321   -0.9226   -1.8140 O   0  0  0  0  0  0  0  0  0  0  0  0
   -4.4033    0.5136    0.1118 C   0  0  0  0  0  0  0  0  0  0  0  0
   -5.7702    0.7901    0.1640 O   0  0  0  0  0  0  0  0  0  0  0  0
   -3.5391    1.1039    1.0497 C   0  0  0  0  0  0  0  0  0  0  0  0
   -4.0238    1.9666    2.0326 O   0  0  0  0  0  0  0  0  0  0  0  0
   -2.1684    0.8296    1.0061 C   0  0  0  0  0  0  0  0  0  0  0  0
    0.6352    0.7255    0.2162 O   0  0  0  0  0  0  0  0  0  0  0  0
    1.9583    0.6220    0.1857 C   0  0  0  0  0  0  0  0  0  0  0  0
    2.7232    1.7617    0.4455 C   0  0  0  0  0  0  0  0  0  0  0  0
    4.1143    1.6966    0.4353 C   0  0  0  0  0  0  0  0  0  0  0  0
    4.8578    2.8405    0.7175 O   0  0  0  0  0  0  0  0  0  0  0  0
    4.7503    0.4898    0.1337 C   0  0  0  0  0  0  0  0  0  0  0  0
    4.0106   -0.6608   -0.1667 C   0  0  0  0  0  0  0  0  0  0  0  0
    4.7410   -1.7902   -0.5478 O   0  0  0  0  0  0  0  0  0  0  0  0
    2.5855   -0.6190   -0.0988 C   0  0  0  0  0  0  0  0  0  0  0  0
   -0.1616   -3.6218   -0.4931 H   0  0  0  0  0  0  0  0  0  0  0  0
   -2.1156   -1.2513   -1.6902 H   0  0  0  0  0  0  0  0  0  0  0  0
   -4.3828   -1.5444   -2.5340 H   0  0  0  0  0  0  0  0  0  0  0  0
   -6.4280    0.3872   -0.4923 H   0  0  0  0  0  0  0  0  0  0  0  0
   -5.0067    2.1993    2.1086 H   0  0  0  0  0  0  0  0  0  0  0  0
   -1.5142    1.2914    1.7361 H   0  0  0  0  0  0  0  0  0  0  0  0
    2.2323    2.7012    0.6684 H   0  0  0  0  0  0  0  0  0  0  0  0
    5.8711    2.8280    0.7157 H   0  0  0  0  0  0  0  0  0  0  0  0
    5.8322    0.4502    0.1016 H   0  0  0  0  0  0  0  0  0  0  0  0
    4.3621   -2.5752   -1.0555 H   0  0  0  0  0  0  0  0  0  0  0  0
  1  2  2  0
  2  3  1  0
  3  4  1  0
  3  5  2  0
  5  6  1  0
  6  7  2  0
  7  8  1  0
  8  9  1  0
  8 10  2  0
 10 11  1  0
 10 12  1  0
 12 13  1  0
 12 14  2  0
  5 15  1  0
 15 16  1  0
 16 17  2  0
 17 18  1  0
 18 19  1  0
 18 20  2  0
 20 21  1  0
 21 22  1  0
 21 23  2  0
 23  2  1  0
 14  6  1  0
 23 16  1  0
  4 24  1  0
  7 25  1  0
  9 26  1  0
 11 27  1  0
 13 28  1  0
 14 29  1  0
 17 30  1  0
 19 31  1  0
 20 32  1  0
 22 33  1  0
M  END
$$$$
