
     RDKit          3D

 51 53  0  0  0  0  0  0  0  0999 V2000
   -3.8866    2.5351   -1.1890 N   0  0  0  0  0  0  0  0  0  0  0  0
   -3.2345    1.3463   -1.7417 C   0  0  2  0  0  0  0  0  0  0  0  0
   -3.9925    0.0746   -1.3894 C   0  0  0  0  0  0  0  0  0  0  0  0
   -4.0781   -0.8223   -2.2725 O   0  0  0  0  0  0  0  0  0  0  0  0
   -4.5516   -0.1835   -0.0835 N   0  0  0  0  0  0  0  0  0  0  0  0
   -4.6805   -1.5515    0.3986 C   0  0  0  0  0  0  0  0  0  0  0  0
   -5.1197   -1.4882    1.8471 C   0  0  0  0  0  0  0  0  0  0  0  0
   -6.1861   -0.0344    2.0244 S   0  0  0  0  0  0  0  0  0  0  0  0
   -5.3023    0.8101    0.6786 C   0  0  0  0  0  0  0  0  0  0  0  0
   -1.7299    1.2971   -1.3394 C   0  0  1  0  0  0  0  0  0  0  0  0
   -1.4818    1.2121    0.1950 C   0  0  0  0  0  0  0  0  0  0  0  0
   -0.9270   -0.1494    0.6314 C   0  0  0  0  0  0  0  0  0  0  0  0
    0.4053   -0.4887   -0.0820 C   0  0  2  0  0  0  0  0  0  0  0  0
    1.5443    0.0601    0.6638 N   0  0  0  0  0  0  0  0  0  0  0  0
    2.8902   -0.3839    0.4428 C   0  0  0  0  0  0  0  0  0  0  0  0
    3.1265   -1.2796   -0.4134 O   0  0  0  0  0  0  0  0  0  0  0  0
    3.9662    0.2252    1.1726 N   0  0  0  0  0  0  0  0  0  0  0  0
    5.3159   -0.2709    1.1853 C   0  0  0  0  0  0  0  0  0  0  0  0
    5.5916   -1.6493    1.1535 C   0  0  0  0  0  0  0  0  0  0  0  0
    6.9119   -2.1055    1.1911 C   0  0  0  0  0  0  0  0  0  0  0  0
    7.9716   -1.1963    1.2741 C   0  0  0  0  0  0  0  0  0  0  0  0
    9.6191   -1.8094    1.3199 Cl  0  0  0  0  0  0  0  0  0  0  0  0
    7.7045    0.1816    1.3295 C   0  0  0  0  0  0  0  0  0  0  0  0
    9.0059    1.3583    1.4479 Cl  0  0  0  0  0  0  0  0  0  0  0  0
    6.3808    0.6361    1.2928 C   0  0  0  0  0  0  0  0  0  0  0  0
    0.4456    0.0130   -1.5485 C   0  0  0  0  0  0  0  0  0  0  0  0
   -0.9581    0.2096   -2.1294 C   0  0  0  0  0  0  0  0  0  0  0  0
   -4.8333    2.6193   -1.6265 H   0  0  0  0  0  0  0  0  0  0  0  0
   -3.3586    3.3833   -1.4984 H   0  0  0  0  0  0  0  0  0  0  0  0
   -3.2628    1.4445   -2.8527 H   0  0  0  0  0  0  0  0  0  0  0  0
   -3.7140   -2.0918    0.3164 H   0  0  0  0  0  0  0  0  0  0  0  0
   -5.4478   -2.0840   -0.2048 H   0  0  0  0  0  0  0  0  0  0  0  0
   -4.2330   -1.3622    2.5049 H   0  0  0  0  0  0  0  0  0  0  0  0
   -5.6676   -2.4095    2.1370 H   0  0  0  0  0  0  0  0  0  0  0  0
   -6.0502    1.3078    0.0269 H   0  0  0  0  0  0  0  0  0  0  0  0
   -4.6222    1.5623    1.1227 H   0  0  0  0  0  0  0  0  0  0  0  0
   -1.2922    2.2673   -1.6691 H   0  0  0  0  0  0  0  0  0  0  0  0
   -0.7462    1.9936    0.4881 H   0  0  0  0  0  0  0  0  0  0  0  0
   -2.4014    1.4285    0.7690 H   0  0  0  0  0  0  0  0  0  0  0  0
   -1.6760   -0.9318    0.3914 H   0  0  0  0  0  0  0  0  0  0  0  0
   -0.7930   -0.1656    1.7350 H   0  0  0  0  0  0  0  0  0  0  0  0
    0.4895   -1.5988   -0.0843 H   0  0  0  0  0  0  0  0  0  0  0  0
    1.3809    0.7890    1.3951 H   0  0  0  0  0  0  0  0  0  0  0  0
    3.7723    1.1337    1.6513 H   0  0  0  0  0  0  0  0  0  0  0  0
    4.7899   -2.3750    1.1263 H   0  0  0  0  0  0  0  0  0  0  0  0
    7.1100   -3.1695    1.1643 H   0  0  0  0  0  0  0  0  0  0  0  0
    6.1794    1.6994    1.3376 H   0  0  0  0  0  0  0  0  0  0  0  0
    0.9892    0.9824   -1.6087 H   0  0  0  0  0  0  0  0  0  0  0  0
    1.0016   -0.7174   -2.1753 H   0  0  0  0  0  0  0  0  0  0  0  0
   -0.8751    0.5127   -3.1960 H   0  0  0  0  0  0  0  0  0  0  0  0
   -1.4901   -0.7647   -2.0972 H   0  0  0  0  0  0  0  0  0  0  0  0
  1  2  1  0
  2  3  1  0
  3  4  2  0
  3  5  1  0
  5  6  1  0
  6  7  1  0
  7  8  1  0
  8  9  1  0
  2 10  1  0
 10 11  1  0
 11 12  1  0
 12 13  1  0
 13 14  1  0
 14 15  1  0
 15 16  2  0
 15 17  1  0
 17 18  1  0
 18 19  2  0
 19 20  1  0
 20 21  2  0
 21 22  1  0
 21 23  1  0
 23 24  1  0
 23 25  2  0
 13 26  1  0
 26 27  1  0
  9  5  1  0
 27 10  1  0
 25 18  1  0
  1 28  1  0
  1 29  1  0
  2 30  1  6
  6 31  1  0
  6 32  1  0
  7 33  1  0
  7 34  1  0
  9 35  1  0
  9 36  1  0
 10 37  1  6
 11 38  1  0
 11 39  1  0
 12 40  1  0
 12 41  1  0
 13 42  1  6
 14 43  1  0
 17 44  1  0
 19 45  1  0
 20 46  1  0
 25 47  1  0
 26 48  1  0
 26 49  1  0
 27 50  1  0
 27 51  1  0
M  END
$$$$
