
     RDKit          3D

 31 31  0  0  0  0  0  0  0  0999 V2000
    2.3366   -0.7487   -1.4055 N   0  0  0  0  0  0  0  0  0  0  0  0
    1.6736   -0.0337   -0.3111 C   0  0  1  0  0  0  0  0  0  0  0  0
    2.5159    1.1605    0.1926 C   0  0  0  0  0  0  0  0  0  0  0  0
    3.7796    0.7028    0.8537 C   0  0  0  0  0  0  0  0  0  0  0  0
    3.7587    0.3074    2.0501 O   0  0  0  0  0  0  0  0  0  0  0  0
    4.9705    0.6811    0.1346 O   0  0  0  0  0  0  0  0  0  0  0  0
    0.2954    0.4086   -0.7589 C   0  0  0  0  0  0  0  0  0  0  0  0
    0.1546    1.6141   -1.8724 S   0  0  0  0  0  0  0  0  0  0  0  0
   -0.8807   -0.3196   -0.3395 N   0  0  0  0  0  0  0  0  0  0  0  0
   -0.8559   -1.7351   -0.0021 C   0  0  0  0  0  0  0  0  0  0  0  0
   -2.3026   -2.2011   -0.0684 C   0  0  0  0  0  0  0  0  0  0  0  0
   -3.1465   -0.9390    0.0653 C   0  0  0  0  0  0  0  0  0  0  0  0
   -2.2410    0.2082   -0.3942 C   0  0  1  0  0  0  0  0  0  0  0  0
   -2.3982    1.5043    0.5403 B   0  0  0  0  0  0  0  0  0  0  0  0
   -2.0221    1.4422    1.9510 O   0  0  0  0  0  0  0  0  0  0  0  0
   -2.8943    2.7562   -0.0251 O   0  0  0  0  0  0  0  0  0  0  0  0
    2.6520   -0.0658   -2.1327 H   0  0  0  0  0  0  0  0  0  0  0  0
    3.1890   -1.2265   -1.0331 H   0  0  0  0  0  0  0  0  0  0  0  0
    1.5555   -0.7328    0.5447 H   0  0  0  0  0  0  0  0  0  0  0  0
    1.9236    1.7465    0.9296 H   0  0  0  0  0  0  0  0  0  0  0  0
    2.7731    1.8405   -0.6481 H   0  0  0  0  0  0  0  0  0  0  0  0
    5.8303    0.3605    0.5635 H   0  0  0  0  0  0  0  0  0  0  0  0
   -0.2339   -2.3020   -0.7288 H   0  0  0  0  0  0  0  0  0  0  0  0
   -0.4580   -1.8672    1.0271 H   0  0  0  0  0  0  0  0  0  0  0  0
   -2.4967   -2.6725   -1.0571 H   0  0  0  0  0  0  0  0  0  0  0  0
   -2.5314   -2.9326    0.7369 H   0  0  0  0  0  0  0  0  0  0  0  0
   -4.0628   -1.0036   -0.5613 H   0  0  0  0  0  0  0  0  0  0  0  0
   -3.4514   -0.8305    1.1310 H   0  0  0  0  0  0  0  0  0  0  0  0
   -2.4935    0.4746   -1.4438 H   0  0  0  0  0  0  0  0  0  0  0  0
   -1.0631    1.6899    1.9655 H   0  0  0  0  0  0  0  0  0  0  0  0
   -3.8763    2.7134    0.0962 H   0  0  0  0  0  0  0  0  0  0  0  0
  1  2  1  0
  2  3  1  0
  3  4  1  0
  4  5  2  0
  4  6  1  0
  2  7  1  0
  7  8  2  0
  7  9  1  0
  9 10  1  0
 10 11  1  0
 11 12  1  0
 12 13  1  0
 13 14  1  0
 14 15  1  0
 14 16  1  0
 13  9  1  0
  1 17  1  0
  1 18  1  0
  2 19  1  1
  3 20  1  0
  3 21  1  0
  6 22  1  0
 10 23  1  0
 10 24  1  0
 11 25  1  0
 11 26  1  0
 12 27  1  0
 12 28  1  0
 13 29  1  6
 15 30  1  0
 16 31  1  0
M  END
$$$$
