
     RDKit          3D

 63 66  0  0  0  0  0  0  0  0999 V2000
    5.8912   -3.0805    1.4431 C   0  0  0  0  0  0  0  0  0  0  0  0
    5.6598   -1.7273    1.0650 O   0  0  0  0  0  0  0  0  0  0  0  0
    4.6115   -1.3059    0.2337 C   0  0  0  0  0  0  0  0  0  0  0  0
    3.6745   -2.2025   -0.3141 C   0  0  0  0  0  0  0  0  0  0  0  0
    2.6455   -1.7323   -1.1353 C   0  0  0  0  0  0  0  0  0  0  0  0
    2.5386   -0.3642   -1.4275 C   0  0  0  0  0  0  0  0  0  0  0  0
    1.4007    0.1469   -2.2715 C   0  0  0  0  0  0  0  0  0  0  0  0
    0.1641    0.1909   -1.4801 N   0  0  0  0  0  0  0  0  0  0  0  0
   -0.1343    1.0969   -0.5110 C   0  0  0  0  0  0  0  0  0  0  0  0
    0.6629    2.2560   -0.2311 N   0  0  0  0  0  0  0  0  0  0  0  0
    0.7386    3.3499   -1.2027 C   0  0  0  0  0  0  0  0  0  0  0  0
    0.0026    4.5765   -0.6553 C   0  0  0  0  0  0  0  0  0  0  0  0
    0.4998    4.9310    0.7552 C   0  0  0  0  0  0  0  0  0  0  0  0
    0.3884    3.7325    1.7211 C   0  0  1  0  0  0  0  0  0  0  0  0
   -1.0175    3.4049    1.9702 N   0  0  0  0  0  0  0  0  0  0  0  0
    1.1263    2.5157    1.1347 C   0  0  0  0  0  0  0  0  0  0  0  0
   -1.2324    0.7816    0.2159 N   0  0  0  0  0  0  0  0  0  0  0  0
   -1.6369   -0.3762   -0.3374 C   0  0  0  0  0  0  0  0  0  0  0  0
   -2.7230   -1.1564    0.0419 C   0  0  0  0  0  0  0  0  0  0  0  0
   -3.5713   -0.7702    1.0913 C   0  0  0  0  0  0  0  0  0  0  0  0
   -4.6604   -1.5739    1.4572 C   0  0  0  0  0  0  0  0  0  0  0  0
   -5.5533   -1.1631    2.5640 C   0  0  0  0  0  0  0  0  0  0  0  0
   -6.5337   -1.8838    2.8950 O   0  0  0  0  0  0  0  0  0  0  0  0
   -5.3190    0.0251    3.2517 O   0  0  0  0  0  0  0  0  0  0  0  0
   -4.8899   -2.7696    0.7598 C   0  0  0  0  0  0  0  0  0  0  0  0
   -4.0498   -3.1629   -0.2851 C   0  0  0  0  0  0  0  0  0  0  0  0
   -2.9450   -2.3683   -0.6701 C   0  0  0  0  0  0  0  0  0  0  0  0
   -2.0911   -2.7393   -1.7052 N   0  0  0  0  0  0  0  0  0  0  0  0
   -2.3221   -3.9989   -2.4411 C   0  0  0  0  0  0  0  0  0  0  0  0
   -1.0222   -1.9343   -2.0553 C   0  0  0  0  0  0  0  0  0  0  0  0
   -0.2575   -2.2557   -3.0040 O   0  0  0  0  0  0  0  0  0  0  0  0
   -0.8054   -0.7442   -1.3492 C   0  0  0  0  0  0  0  0  0  0  0  0
    3.4718    0.5285   -0.8776 C   0  0  0  0  0  0  0  0  0  0  0  0
    4.4994    0.0586   -0.0556 C   0  0  0  0  0  0  0  0  0  0  0  0
    0.6878    0.0000    0.0000 Cl  0  0  0  0  0  0  0  0  0  0  0  0
    6.0828   -3.7011    0.5423 H   0  0  0  0  0  0  0  0  0  0  0  0
    5.0163   -3.4759    2.0011 H   0  0  0  0  0  0  0  0  0  0  0  0
    6.7825   -3.1255    2.1017 H   0  0  0  0  0  0  0  0  0  0  0  0
    3.7299   -3.2628   -0.1087 H   0  0  0  0  0  0  0  0  0  0  0  0
    1.9315   -2.4372   -1.5391 H   0  0  0  0  0  0  0  0  0  0  0  0
    1.6352    1.1602   -2.6574 H   0  0  0  0  0  0  0  0  0  0  0  0
    1.2845   -0.4806   -3.1749 H   0  0  0  0  0  0  0  0  0  0  0  0
    0.2811    3.0549   -2.1722 H   0  0  0  0  0  0  0  0  0  0  0  0
    1.8045    3.6058   -1.3862 H   0  0  0  0  0  0  0  0  0  0  0  0
    0.1692    5.4403   -1.3342 H   0  0  0  0  0  0  0  0  0  0  0  0
   -1.0893    4.3687   -0.6253 H   0  0  0  0  0  0  0  0  0  0  0  0
    1.5620    5.2560    0.6961 H   0  0  0  0  0  0  0  0  0  0  0  0
   -0.0874    5.7892    1.1477 H   0  0  0  0  0  0  0  0  0  0  0  0
    0.8727    4.0086    2.6852 H   0  0  0  0  0  0  0  0  0  0  0  0
   -1.4726    4.2301    2.4242 H   0  0  0  0  0  0  0  0  0  0  0  0
   -1.0564    2.6329    2.6751 H   0  0  0  0  0  0  0  0  0  0  0  0
    0.9812    1.6222    1.7815 H   0  0  0  0  0  0  0  0  0  0  0  0
    2.2175    2.7273    1.1104 H   0  0  0  0  0  0  0  0  0  0  0  0
   -3.3824    0.1561    1.6210 H   0  0  0  0  0  0  0  0  0  0  0  0
   -5.9241    0.3152    4.0106 H   0  0  0  0  0  0  0  0  0  0  0  0
   -5.7245   -3.4080    1.0224 H   0  0  0  0  0  0  0  0  0  0  0  0
   -4.2821   -4.0945   -0.7808 H   0  0  0  0  0  0  0  0  0  0  0  0
   -1.5689   -4.1862   -3.2337 H   0  0  0  0  0  0  0  0  0  0  0  0
   -2.2737   -4.8598   -1.7407 H   0  0  0  0  0  0  0  0  0  0  0  0
   -3.3160   -3.9699   -2.9364 H   0  0  0  0  0  0  0  0  0  0  0  0
    3.4043    1.5894   -1.0816 H   0  0  0  0  0  0  0  0  0  0  0  0
    5.2115    0.7592    0.3617 H   0  0  0  0  0  0  0  0  0  0  0  0
   -0.6878    0.0000    0.0000 H   0  0  0  0  0  0  0  0  0  0  0  0
  1  2  1  0
  2  3  1  0
  3  4  2  0
  4  5  1  0
  5  6  2  0
  6  7  1  0
  7  8  1  0
  8  9  1  0
  9 10  1  0
 10 11  1  0
 11 12  1  0
 12 13  1  0
 13 14  1  0
 14 15  1  0
 14 16  1  0
  9 17  2  0
 17 18  1  0
 18 19  1  0
 19 20  2  0
 20 21  1  0
 21 22  1  0
 22 23  2  0
 22 24  1  0
 21 25  2  0
 25 26  1  0
 26 27  2  0
 27 28  1  0
 28 29  1  0
 28 30  1  0
 30 31  2  0
 30 32  1  0
  6 33  1  0
 33 34  2  0
 34  3  1  0
 32  8  1  0
 16 10  1  0
 32 18  2  0
 27 19  1  0
  1 36  1  0
  1 37  1  0
  1 38  1  0
  4 39  1  0
  5 40  1  0
  7 41  1  0
  7 42  1  0
 11 43  1  0
 11 44  1  0
 12 45  1  0
 12 46  1  0
 13 47  1  0
 13 48  1  0
 14 49  1  1
 15 50  1  0
 15 51  1  0
 16 52  1  0
 16 53  1  0
 20 54  1  0
 24 55  1  0
 25 56  1  0
 26 57  1  0
 29 58  1  0
 29 59  1  0
 29 60  1  0
 33 61  1  0
 34 62  1  0
 35 63  1  0
M  END
$$$$
