
     RDKit          3D

 47 50  0  0  0  0  0  0  0  0999 V2000
    7.4451    0.3839   -0.3801 C   0  0  0  0  0  0  0  0  0  0  0  0
    6.5510    0.3895    1.1573 S   0  0  0  0  0  0  0  0  0  0  0  0
    6.9258    1.6189    1.9360 O   0  0  0  0  0  0  0  0  0  0  0  0
    6.9022   -0.8315    1.9595 O   0  0  0  0  0  0  0  0  0  0  0  0
    4.8514    0.4046    0.8394 N   0  0  0  0  0  0  0  0  0  0  0  0
    4.1838   -0.5278    0.1269 C   0  0  0  0  0  0  0  0  0  0  0  0
    2.8479   -0.2094    0.2104 C   0  0  0  0  0  0  0  0  0  0  0  0
    2.7762    0.8684    1.0030 C   0  0  0  0  0  0  0  0  0  0  0  0
    3.9982    1.2260    1.4377 N   0  0  0  0  0  0  0  0  0  0  0  0
    1.5006    0.8969    1.7444 C   0  0  0  0  0  0  0  0  0  0  0  0
    0.7122   -0.2350    1.1821 N   0  0  0  0  0  0  0  0  0  0  0  0
   -0.5216    0.2052    0.4760 C   0  0  1  0  0  0  0  0  0  0  0  0
   -0.2433    1.0107   -0.8161 C   0  0  0  0  0  0  0  0  0  0  0  0
   -1.7801    1.7410   -1.4757 S   0  0  0  0  0  0  0  0  0  0  0  0
   -2.8466    0.2350   -1.5402 C   0  0  0  0  0  0  0  0  0  0  0  0
   -4.1525    0.4447   -0.7885 C   0  0  0  0  0  0  0  0  0  0  0  0
   -4.1884    1.1157    0.4509 C   0  0  0  0  0  0  0  0  0  0  0  0
   -5.3918    1.2614    1.1472 C   0  0  0  0  0  0  0  0  0  0  0  0
   -5.4120    1.9161    2.3343 F   0  0  0  0  0  0  0  0  0  0  0  0
   -6.5718    0.7297    0.6250 C   0  0  0  0  0  0  0  0  0  0  0  0
   -6.5501    0.0457   -0.5913 C   0  0  0  0  0  0  0  0  0  0  0  0
   -5.3503   -0.1046   -1.2939 C   0  0  0  0  0  0  0  0  0  0  0  0
   -5.3581   -0.7952   -2.4627 F   0  0  0  0  0  0  0  0  0  0  0  0
   -2.1624   -1.0902   -1.1134 C   0  0  1  0  0  0  0  0  0  0  0  0
   -1.2099   -1.5364   -2.1355 N   0  0  0  0  0  0  0  0  0  0  0  0
   -1.4805   -1.0000    0.2702 C   0  0  0  0  0  0  0  0  0  0  0  0
    1.6436   -1.0487    0.3511 C   0  0  0  0  0  0  0  0  0  0  0  0
    8.5356    0.3999   -0.1763 H   0  0  0  0  0  0  0  0  0  0  0  0
    7.1911   -0.5310   -0.9540 H   0  0  0  0  0  0  0  0  0  0  0  0
    7.1670    1.2791   -0.9735 H   0  0  0  0  0  0  0  0  0  0  0  0
    4.6174   -1.4370   -0.2687 H   0  0  0  0  0  0  0  0  0  0  0  0
    1.0068    1.8871    1.6392 H   0  0  0  0  0  0  0  0  0  0  0  0
    1.6918    0.7032    2.8212 H   0  0  0  0  0  0  0  0  0  0  0  0
   -1.0558    0.9026    1.1592 H   0  0  0  0  0  0  0  0  0  0  0  0
    0.2441    0.4091   -1.6059 H   0  0  0  0  0  0  0  0  0  0  0  0
    0.4413    1.8550   -0.6002 H   0  0  0  0  0  0  0  0  0  0  0  0
   -3.1026    0.1410   -2.6176 H   0  0  0  0  0  0  0  0  0  0  0  0
   -3.2900    1.5299    0.8841 H   0  0  0  0  0  0  0  0  0  0  0  0
   -7.5029    0.8413    1.1655 H   0  0  0  0  0  0  0  0  0  0  0  0
   -7.4654   -0.3746   -0.9880 H   0  0  0  0  0  0  0  0  0  0  0  0
   -2.9523   -1.8738   -1.0346 H   0  0  0  0  0  0  0  0  0  0  0  0
   -1.7306   -1.7036   -3.0272 H   0  0  0  0  0  0  0  0  0  0  0  0
   -0.8291   -2.4688   -1.8531 H   0  0  0  0  0  0  0  0  0  0  0  0
   -0.9492   -1.9576    0.4613 H   0  0  0  0  0  0  0  0  0  0  0  0
   -2.2737   -0.9584    1.0488 H   0  0  0  0  0  0  0  0  0  0  0  0
    1.9009   -1.9759    0.9062 H   0  0  0  0  0  0  0  0  0  0  0  0
    1.2372   -1.3342   -0.6401 H   0  0  0  0  0  0  0  0  0  0  0  0
  1  2  1  0
  2  3  2  0
  2  4  2  0
  2  5  1  0
  5  6  1  0
  6  7  2  0
  7  8  1  0
  8  9  2  0
  8 10  1  0
 10 11  1  0
 11 12  1  0
 12 13  1  0
 13 14  1  0
 14 15  1  0
 15 16  1  0
 16 17  2  0
 17 18  1  0
 18 19  1  0
 18 20  2  0
 20 21  1  0
 21 22  2  0
 22 23  1  0
 15 24  1  0
 24 25  1  0
 24 26  1  0
 11 27  1  0
  9  5  1  0
 26 12  1  0
 27  7  1  0
 22 16  1  0
  1 28  1  0
  1 29  1  0
  1 30  1  0
  6 31  1  0
 10 32  1  0
 10 33  1  0
 12 34  1  1
 13 35  1  0
 13 36  1  0
 15 37  1  0
 17 38  1  0
 20 39  1  0
 21 40  1  0
 24 41  1  1
 25 42  1  0
 25 43  1  0
 26 44  1  0
 26 45  1  0
 27 46  1  0
 27 47  1  0
M  END
$$$$
