
     RDKit          3D

 50 53  0  0  0  0  0  0  0  0999 V2000
    7.6191    0.0721    0.5747 C   0  0  0  0  0  0  0  0  0  0  0  0
    6.7755   -0.8980   -0.6535 S   0  0  0  0  0  0  0  0  0  0  0  0
    7.1922   -2.3374   -0.5423 O   0  0  0  0  0  0  0  0  0  0  0  0
    7.1297   -0.3903   -2.0228 O   0  0  0  0  0  0  0  0  0  0  0  0
    5.0678   -0.7713   -0.4165 N   0  0  0  0  0  0  0  0  0  0  0  0
    4.3770   -1.3439    0.5919 C   0  0  0  0  0  0  0  0  0  0  0  0
    3.0824   -0.8896    0.4914 C   0  0  0  0  0  0  0  0  0  0  0  0
    3.0682   -0.0378   -0.5386 C   0  0  0  0  0  0  0  0  0  0  0  0
    4.2965    0.0848   -1.0744 N   0  0  0  0  0  0  0  0  0  0  0  0
    2.0559    1.0140   -0.3383 C   0  0  0  0  0  0  0  0  0  0  0  0
    1.3291    0.6228    0.9046 N   0  0  0  0  0  0  0  0  0  0  0  0
   -0.1249    0.3185    0.7663 C   0  0  2  0  0  0  0  0  0  0  0  0
   -0.4961   -0.6294   -0.3903 C   0  0  0  0  0  0  0  0  0  0  0  0
   -2.0005   -0.9331   -0.3360 C   0  0  2  0  0  0  0  0  0  0  0  0
   -2.3849   -1.7151   -1.5158 N   0  0  0  0  0  0  0  0  0  0  0  0
   -2.7981    0.4000   -0.2780 C   0  0  1  0  0  0  0  0  0  0  0  0
   -4.2854    0.1292   -0.1602 C   0  0  0  0  0  0  0  0  0  0  0  0
   -5.1264    0.3221   -1.2725 C   0  0  0  0  0  0  0  0  0  0  0  0
   -6.4957    0.0552   -1.1811 C   0  0  0  0  0  0  0  0  0  0  0  0
   -7.2963    0.2457   -2.2587 F   0  0  0  0  0  0  0  0  0  0  0  0
   -7.0397   -0.4103    0.0179 C   0  0  0  0  0  0  0  0  0  0  0  0
   -6.2159   -0.6121    1.1272 C   0  0  0  0  0  0  0  0  0  0  0  0
   -4.8450   -0.3479    1.0439 C   0  0  0  0  0  0  0  0  0  0  0  0
   -4.0675   -0.5576    2.1365 F   0  0  0  0  0  0  0  0  0  0  0  0
   -2.4087    1.2102    0.8255 O   0  0  0  0  0  0  0  0  0  0  0  0
   -1.0345    1.5780    0.7997 C   0  0  2  0  0  0  0  0  0  0  0  0
   -0.7610    2.7101   -0.2207 C   0  0  0  0  0  0  0  0  0  0  0  0
   -0.6693    2.2422   -1.5172 F   0  0  0  0  0  0  0  0  0  0  0  0
    0.4107    3.3684    0.1039 F   0  0  0  0  0  0  0  0  0  0  0  0
   -1.7922    3.6309   -0.1639 F   0  0  0  0  0  0  0  0  0  0  0  0
    2.0868   -0.5120    1.5090 C   0  0  0  0  0  0  0  0  0  0  0  0
    7.3037    1.1324    0.4896 H   0  0  0  0  0  0  0  0  0  0  0  0
    7.3636   -0.3071    1.5857 H   0  0  0  0  0  0  0  0  0  0  0  0
    8.7151   -0.0013    0.4189 H   0  0  0  0  0  0  0  0  0  0  0  0
    4.8160   -1.8982    1.4113 H   0  0  0  0  0  0  0  0  0  0  0  0
    2.5731    1.9807   -0.1618 H   0  0  0  0  0  0  0  0  0  0  0  0
    1.4269    1.1103   -1.2376 H   0  0  0  0  0  0  0  0  0  0  0  0
   -0.4296   -0.2232    1.6936 H   0  0  0  0  0  0  0  0  0  0  0  0
   -0.2656   -0.1952   -1.3820 H   0  0  0  0  0  0  0  0  0  0  0  0
    0.0760   -1.5773   -0.2945 H   0  0  0  0  0  0  0  0  0  0  0  0
   -2.2056   -1.5316    0.5812 H   0  0  0  0  0  0  0  0  0  0  0  0
   -3.3616   -2.0633   -1.3821 H   0  0  0  0  0  0  0  0  0  0  0  0
   -1.7892   -2.5743   -1.5534 H   0  0  0  0  0  0  0  0  0  0  0  0
   -2.6293    0.9559   -1.2245 H   0  0  0  0  0  0  0  0  0  0  0  0
   -4.7219    0.6750   -2.2130 H   0  0  0  0  0  0  0  0  0  0  0  0
   -8.0998   -0.6174    0.0880 H   0  0  0  0  0  0  0  0  0  0  0  0
   -6.6411   -0.9760    2.0537 H   0  0  0  0  0  0  0  0  0  0  0  0
   -0.8398    2.0466    1.7901 H   0  0  0  0  0  0  0  0  0  0  0  0
    2.6007   -0.1578    2.4279 H   0  0  0  0  0  0  0  0  0  0  0  0
    1.4596   -1.3963    1.7565 H   0  0  0  0  0  0  0  0  0  0  0  0
  1  2  1  0
  2  3  2  0
  2  4  2  0
  2  5  1  0
  5  6  1  0
  6  7  2  0
  7  8  1  0
  8  9  2  0
  8 10  1  0
 10 11  1  0
 11 12  1  0
 12 13  1  0
 13 14  1  0
 14 15  1  0
 14 16  1  0
 16 17  1  0
 17 18  2  0
 18 19  1  0
 19 20  1  0
 19 21  2  0
 21 22  1  0
 22 23  2  0
 23 24  1  0
 16 25  1  0
 25 26  1  0
 26 27  1  0
 27 28  1  0
 27 29  1  0
 27 30  1  0
 11 31  1  0
  9  5  1  0
 26 12  1  0
 31  7  1  0
 23 17  1  0
  1 32  1  0
  1 33  1  0
  1 34  1  0
  6 35  1  0
 10 36  1  0
 10 37  1  0
 12 38  1  1
 13 39  1  0
 13 40  1  0
 14 41  1  1
 15 42  1  0
 15 43  1  0
 16 44  1  6
 18 45  1  0
 21 46  1  0
 22 47  1  0
 26 48  1  1
 31 49  1  0
 31 50  1  0
M  END
$$$$
