
     RDKit          3D

 56 58  0  0  0  0  0  0  0  0999 V2000
   -0.2194    3.2661    2.5857 C   0  0  0  0  0  0  0  0  0  0  0  0
   -0.6240    2.7633    1.2734 C   0  0  0  0  0  0  0  0  0  0  0  0
   -0.9575    2.3448    0.1936 C   0  0  0  0  0  0  0  0  0  0  0  0
   -1.3623    1.8255   -1.1173 C   0  0  0  0  0  0  0  0  0  0  0  0
   -0.9361    0.4195   -1.2596 N   0  0  0  0  0  0  0  0  0  0  0  0
   -1.8007   -0.6070   -0.9721 C   0  0  0  0  0  0  0  0  0  0  0  0
   -3.1280   -0.3564   -0.4814 N   0  0  0  0  0  0  0  0  0  0  0  0
   -4.2865   -0.5277   -1.3599 C   0  0  0  0  0  0  0  0  0  0  0  0
   -5.3094   -1.4523   -0.6966 C   0  0  0  0  0  0  0  0  0  0  0  0
   -5.6380   -0.9820    0.7292 C   0  0  0  0  0  0  0  0  0  0  0  0
   -4.3751   -0.7896    1.6020 C   0  0  1  0  0  0  0  0  0  0  0  0
   -3.7693   -2.0694    1.9825 N   0  0  0  0  0  0  0  0  0  0  0  0
   -3.3432    0.1034    0.8936 C   0  0  0  0  0  0  0  0  0  0  0  0
   -1.3978   -1.9261   -1.1506 C   0  0  0  0  0  0  0  0  0  0  0  0
   -0.1035   -2.1911   -1.5757 C   0  0  0  0  0  0  0  0  0  0  0  0
    0.2513   -3.3927   -1.7241 O   0  0  0  0  0  0  0  0  0  0  0  0
    0.7682   -1.1618   -1.8196 N   0  0  0  0  0  0  0  0  0  0  0  0
    2.1651   -1.4367   -2.2208 C   0  0  0  0  0  0  0  0  0  0  0  0
    3.1058   -1.2237   -1.0509 C   0  0  0  0  0  0  0  0  0  0  0  0
    2.9835   -2.0857    0.0508 C   0  0  0  0  0  0  0  0  0  0  0  0
    3.8022   -1.9382    1.1654 C   0  0  0  0  0  0  0  0  0  0  0  0
    4.7497   -0.9205    1.2072 C   0  0  0  0  0  0  0  0  0  0  0  0
    4.8969   -0.0319    0.1296 C   0  0  0  0  0  0  0  0  0  0  0  0
    5.8982    1.0531    0.2504 C   0  0  0  0  0  0  0  0  0  0  0  0
    6.9627    0.8510    0.8980 O   0  0  0  0  0  0  0  0  0  0  0  0
    5.6461    2.3124   -0.3027 O   0  0  0  0  0  0  0  0  0  0  0  0
    6.5656    3.3932   -0.2042 C   0  0  0  0  0  0  0  0  0  0  0  0
    4.0854   -0.1948   -1.0238 C   0  0  0  0  0  0  0  0  0  0  0  0
    4.3933    0.9038   -2.5842 Br  0  0  0  0  0  0  0  0  0  0  0  0
    0.3483    0.1376   -1.6621 C   0  0  0  0  0  0  0  0  0  0  0  0
    1.1541    1.0851   -1.8868 O   0  0  0  0  0  0  0  0  0  0  0  0
   -0.8262    2.7733    3.3730 H   0  0  0  0  0  0  0  0  0  0  0  0
    0.8544    3.0423    2.7522 H   0  0  0  0  0  0  0  0  0  0  0  0
   -0.3797    4.3631    2.6273 H   0  0  0  0  0  0  0  0  0  0  0  0
   -2.4603    1.9353   -1.2341 H   0  0  0  0  0  0  0  0  0  0  0  0
   -0.9102    2.4565   -1.9123 H   0  0  0  0  0  0  0  0  0  0  0  0
   -4.7487    0.4647   -1.5526 H   0  0  0  0  0  0  0  0  0  0  0  0
   -3.9807   -0.9598   -2.3381 H   0  0  0  0  0  0  0  0  0  0  0  0
   -4.9149   -2.4904   -0.6755 H   0  0  0  0  0  0  0  0  0  0  0  0
   -6.2406   -1.4616   -1.3029 H   0  0  0  0  0  0  0  0  0  0  0  0
   -6.1819   -0.0136    0.6682 H   0  0  0  0  0  0  0  0  0  0  0  0
   -6.3230   -1.7136    1.2095 H   0  0  0  0  0  0  0  0  0  0  0  0
   -4.6826   -0.2706    2.5370 H   0  0  0  0  0  0  0  0  0  0  0  0
   -4.4808   -2.6425    2.4916 H   0  0  0  0  0  0  0  0  0  0  0  0
   -3.4863   -2.6023    1.1301 H   0  0  0  0  0  0  0  0  0  0  0  0
   -3.7186    1.1495    0.8708 H   0  0  0  0  0  0  0  0  0  0  0  0
   -2.3893    0.0966    1.4663 H   0  0  0  0  0  0  0  0  0  0  0  0
   -2.0832   -2.7397   -0.9450 H   0  0  0  0  0  0  0  0  0  0  0  0
    2.2894   -2.4792   -2.5851 H   0  0  0  0  0  0  0  0  0  0  0  0
    2.4201   -0.8145   -3.1002 H   0  0  0  0  0  0  0  0  0  0  0  0
    2.2506   -2.8821    0.0466 H   0  0  0  0  0  0  0  0  0  0  0  0
    3.6959   -2.6118    2.0061 H   0  0  0  0  0  0  0  0  0  0  0  0
    5.3607   -0.8164    2.0957 H   0  0  0  0  0  0  0  0  0  0  0  0
    6.7400    3.6481    0.8625 H   0  0  0  0  0  0  0  0  0  0  0  0
    7.5273    3.1189   -0.6874 H   0  0  0  0  0  0  0  0  0  0  0  0
    6.1432    4.2789   -0.7214 H   0  0  0  0  0  0  0  0  0  0  0  0
  1  2  1  0
  2  3  3  0
  3  4  1  0
  4  5  1  0
  5  6  1  0
  6  7  1  0
  7  8  1  0
  8  9  1  0
  9 10  1  0
 10 11  1  0
 11 12  1  0
 11 13  1  0
  6 14  2  0
 14 15  1  0
 15 16  2  0
 15 17  1  0
 17 18  1  0
 18 19  1  0
 19 20  2  0
 20 21  1  0
 21 22  2  0
 22 23  1  0
 23 24  1  0
 24 25  2  0
 24 26  1  0
 26 27  1  0
 23 28  2  0
 28 29  1  0
 17 30  1  0
 30 31  2  0
 30  5  1  0
 13  7  1  0
 28 19  1  0
  1 32  1  0
  1 33  1  0
  1 34  1  0
  4 35  1  0
  4 36  1  0
  8 37  1  0
  8 38  1  0
  9 39  1  0
  9 40  1  0
 10 41  1  0
 10 42  1  0
 11 43  1  1
 12 44  1  0
 12 45  1  0
 13 46  1  0
 13 47  1  0
 14 48  1  0
 18 49  1  0
 18 50  1  0
 20 51  1  0
 21 52  1  0
 22 53  1  0
 27 54  1  0
 27 55  1  0
 27 56  1  0
M  END
$$$$
