
     RDKit          3D

 41 43  0  0  0  0  0  0  0  0999 V2000
    6.8436    1.6788   -0.6813 C   0  0  0  0  0  0  0  0  0  0  0  0
    6.2990    0.5750    0.0346 O   0  0  0  0  0  0  0  0  0  0  0  0
    4.9270    0.3080    0.1543 C   0  0  0  0  0  0  0  0  0  0  0  0
    3.9445    1.1244   -0.4348 C   0  0  0  0  0  0  0  0  0  0  0  0
    2.5889    0.8164   -0.2869 C   0  0  0  0  0  0  0  0  0  0  0  0
    2.1868   -0.3120    0.4514 C   0  0  0  0  0  0  0  0  0  0  0  0
    0.7480   -0.6383    0.6094 C   0  0  0  0  0  0  0  0  0  0  0  0
    0.3638   -1.7207    1.3334 N   0  0  0  0  0  0  0  0  0  0  0  0
   -0.9439   -2.0454    1.5053 C   0  0  0  0  0  0  0  0  0  0  0  0
   -1.2596   -3.2089    2.2790 N   0  0  0  0  0  0  0  0  0  0  0  0
   -1.9480   -1.2355    0.9243 C   0  0  0  0  0  0  0  0  0  0  0  0
   -3.4175   -1.5413    1.1366 C   0  0  0  0  0  0  0  0  0  0  0  0
   -3.8030   -2.7228    0.3717 N   0  0  0  0  0  0  0  0  0  0  0  0
   -1.5248   -0.1267    0.1534 C   0  0  0  0  0  0  0  0  0  0  0  0
   -2.4742    0.7750   -0.5256 C   0  0  0  0  0  0  0  0  0  0  0  0
   -3.1431    0.3342   -1.6781 C   0  0  0  0  0  0  0  0  0  0  0  0
   -4.0376    1.1784   -2.3408 C   0  0  0  0  0  0  0  0  0  0  0  0
   -4.2654    2.4720   -1.8627 C   0  0  0  0  0  0  0  0  0  0  0  0
   -5.3888    3.5302   -2.6964 Cl  0  0  0  0  0  0  0  0  0  0  0  0
   -3.5948    2.9231   -0.7214 C   0  0  0  0  0  0  0  0  0  0  0  0
   -2.6969    2.0831   -0.0516 C   0  0  0  0  0  0  0  0  0  0  0  0
   -1.8845    2.6872    1.3886 Cl  0  0  0  0  0  0  0  0  0  0  0  0
   -0.1994    0.1401    0.0278 N   0  0  0  0  0  0  0  0  0  0  0  0
    3.1749   -1.1238    1.0381 C   0  0  0  0  0  0  0  0  0  0  0  0
    4.5296   -0.8137    0.8886 C   0  0  0  0  0  0  0  0  0  0  0  0
    6.4877    2.6334   -0.2395 H   0  0  0  0  0  0  0  0  0  0  0  0
    7.9501    1.6458   -0.6116 H   0  0  0  0  0  0  0  0  0  0  0  0
    6.5527    1.6207   -1.7515 H   0  0  0  0  0  0  0  0  0  0  0  0
    4.2172    1.9994   -1.0088 H   0  0  0  0  0  0  0  0  0  0  0  0
    1.8569    1.4649   -0.7516 H   0  0  0  0  0  0  0  0  0  0  0  0
   -2.2351   -3.5507    2.4153 H   0  0  0  0  0  0  0  0  0  0  0  0
   -0.4890   -3.7669    2.7094 H   0  0  0  0  0  0  0  0  0  0  0  0
   -3.6036   -1.7188    2.2177 H   0  0  0  0  0  0  0  0  0  0  0  0
   -4.0695   -0.6859    0.8582 H   0  0  0  0  0  0  0  0  0  0  0  0
   -4.7965   -2.9462    0.6092 H   0  0  0  0  0  0  0  0  0  0  0  0
   -3.7885   -2.4760   -0.6440 H   0  0  0  0  0  0  0  0  0  0  0  0
   -2.9653   -0.6602   -2.0677 H   0  0  0  0  0  0  0  0  0  0  0  0
   -4.5499    0.8274   -3.2275 H   0  0  0  0  0  0  0  0  0  0  0  0
   -3.7721    3.9263   -0.3543 H   0  0  0  0  0  0  0  0  0  0  0  0
    2.9044   -2.0001    1.6135 H   0  0  0  0  0  0  0  0  0  0  0  0
    5.2761   -1.4500    1.3470 H   0  0  0  0  0  0  0  0  0  0  0  0
  1  2  1  0
  2  3  1  0
  3  4  2  0
  4  5  1  0
  5  6  2  0
  6  7  1  0
  7  8  2  0
  8  9  1  0
  9 10  1  0
  9 11  2  0
 11 12  1  0
 12 13  1  0
 11 14  1  0
 14 15  1  0
 15 16  2  0
 16 17  1  0
 17 18  2  0
 18 19  1  0
 18 20  1  0
 20 21  2  0
 21 22  1  0
 14 23  2  0
  6 24  1  0
 24 25  2  0
 25  3  1  0
 23  7  1  0
 21 15  1  0
  1 26  1  0
  1 27  1  0
  1 28  1  0
  4 29  1  0
  5 30  1  0
 10 31  1  0
 10 32  1  0
 12 33  1  0
 12 34  1  0
 13 35  1  0
 13 36  1  0
 16 37  1  0
 17 38  1  0
 20 39  1  0
 24 40  1  0
 25 41  1  0
M  END
$$$$
