
     RDKit          3D

 48 49  0  0  0  0  0  0  0  0999 V2000
    4.7483    3.3212    0.3571 C   0  0  0  0  0  0  0  0  0  0  0  0
    3.7568    2.5651    1.0167 O   0  0  0  0  0  0  0  0  0  0  0  0
    3.8875    1.1936    0.6868 C   0  0  1  0  0  0  0  0  0  0  0  0
    3.2439    0.3378    1.7659 C   0  0  0  0  0  0  0  0  0  0  0  0
    2.8237   -0.9592    1.0636 C   0  0  1  0  0  0  0  0  0  0  0  0
    1.4410   -1.4605    1.4935 C   0  0  0  0  0  0  0  0  0  0  0  0
    0.4740   -0.9511    0.4221 C   0  0  2  0  0  0  0  0  0  0  0  0
   -0.7248   -1.7967    0.2648 N   0  0  0  0  0  0  0  0  0  0  0  0
   -1.6907   -1.6166    1.3564 C   0  0  0  0  0  0  0  0  0  0  0  0
   -2.4251   -0.3100    1.2198 C   0  0  0  0  0  0  0  0  0  0  0  0
   -2.1683    0.6134    2.0394 O   0  0  0  0  0  0  0  0  0  0  0  0
   -3.4042   -0.0876    0.1850 N   0  0  0  0  0  0  0  0  0  0  0  0
   -4.2490    1.0966    0.1652 C   0  0  0  0  0  0  0  0  0  0  0  0
   -5.1509    0.9438   -1.0526 C   0  0  0  0  0  0  0  0  0  0  0  0
   -5.0815   -0.5325   -1.4310 C   0  0  0  0  0  0  0  0  0  0  0  0
   -3.7570   -1.0395   -0.8613 C   0  0  1  0  0  0  0  0  0  0  0  0
   -2.7159   -1.0531   -1.9021 C   0  0  0  0  0  0  0  0  0  0  0  0
   -1.8980   -1.0631   -2.7208 N   0  0  0  0  0  0  0  0  0  0  0  0
    1.2939   -0.9381   -0.8617 C   0  0  0  0  0  0  0  0  0  0  0  0
    2.7317   -0.6331   -0.4293 C   0  0  1  0  0  0  0  0  0  0  0  0
    3.1093    0.8458   -0.5765 C   0  0  0  0  0  0  0  0  0  0  0  0
    0.6878    0.0000    0.0000 Cl  0  0  0  0  0  0  0  0  0  0  0  0
    4.5780    4.3951    0.5766 H   0  0  0  0  0  0  0  0  0  0  0  0
    4.6946    3.1912   -0.7463 H   0  0  0  0  0  0  0  0  0  0  0  0
    5.7623    3.0581    0.7311 H   0  0  0  0  0  0  0  0  0  0  0  0
    4.9521    0.8686    0.5805 H   0  0  0  0  0  0  0  0  0  0  0  0
    2.3593    0.8732    2.1798 H   0  0  0  0  0  0  0  0  0  0  0  0
    3.9581    0.1338    2.5930 H   0  0  0  0  0  0  0  0  0  0  0  0
    3.5929   -1.7448    1.2407 H   0  0  0  0  0  0  0  0  0  0  0  0
    1.1547   -1.1038    2.5067 H   0  0  0  0  0  0  0  0  0  0  0  0
    1.4539   -2.5727    1.5068 H   0  0  0  0  0  0  0  0  0  0  0  0
    0.1879    0.0999    0.6550 H   0  0  0  0  0  0  0  0  0  0  0  0
   -0.4457   -2.8055    0.2321 H   0  0  0  0  0  0  0  0  0  0  0  0
   -2.4307   -2.4443    1.3346 H   0  0  0  0  0  0  0  0  0  0  0  0
   -1.1876   -1.6768    2.3465 H   0  0  0  0  0  0  0  0  0  0  0  0
   -4.8585    1.1357    1.0943 H   0  0  0  0  0  0  0  0  0  0  0  0
   -3.6278    2.0145    0.0811 H   0  0  0  0  0  0  0  0  0  0  0  0
   -6.1939    1.2569   -0.8293 H   0  0  0  0  0  0  0  0  0  0  0  0
   -4.7544    1.5588   -1.8904 H   0  0  0  0  0  0  0  0  0  0  0  0
   -5.9203   -1.0710   -0.9369 H   0  0  0  0  0  0  0  0  0  0  0  0
   -5.1728   -0.6757   -2.5311 H   0  0  0  0  0  0  0  0  0  0  0  0
   -3.8909   -2.0607   -0.4461 H   0  0  0  0  0  0  0  0  0  0  0  0
    0.8945   -0.2009   -1.5923 H   0  0  0  0  0  0  0  0  0  0  0  0
    1.2695   -1.9442   -1.3371 H   0  0  0  0  0  0  0  0  0  0  0  0
    3.4495   -1.2600   -1.0054 H   0  0  0  0  0  0  0  0  0  0  0  0
    3.7280    1.0089   -1.4852 H   0  0  0  0  0  0  0  0  0  0  0  0
    2.2027    1.4895   -0.6366 H   0  0  0  0  0  0  0  0  0  0  0  0
   -0.6878    0.0000    0.0000 H   0  0  0  0  0  0  0  0  0  0  0  0
  1  2  1  0
  2  3  1  0
  3  4  1  0
  4  5  1  0
  5  6  1  0
  6  7  1  0
  7  8  1  0
  8  9  1  0
  9 10  1  0
 10 11  2  0
 10 12  1  0
 12 13  1  0
 13 14  1  0
 14 15  1  0
 15 16  1  0
 16 17  1  0
 17 18  3  0
  7 19  1  0
 19 20  1  0
 20 21  1  0
 21  3  1  0
 20  5  1  0
 16 12  1  0
  1 23  1  0
  1 24  1  0
  1 25  1  0
  3 26  1  6
  4 27  1  0
  4 28  1  0
  5 29  1  6
  6 30  1  0
  6 31  1  0
  7 32  1  1
  8 33  1  0
  9 34  1  0
  9 35  1  0
 13 36  1  0
 13 37  1  0
 14 38  1  0
 14 39  1  0
 15 40  1  0
 15 41  1  0
 16 42  1  1
 19 43  1  0
 19 44  1  0
 20 45  1  6
 21 46  1  0
 21 47  1  0
 22 48  1  0
M  END
$$$$
