
     RDKit          3D

 78 82  0  0  0  0  0  0  0  0999 V2000
    1.1950    3.6112   -1.8863 C   0  0  0  0  0  0  0  0  0  0  0  0
    0.4970    2.7787   -0.9073 C   0  0  0  0  0  0  0  0  0  0  0  0
   -0.0752    2.0892   -0.1015 C   0  0  0  0  0  0  0  0  0  0  0  0
   -0.7643    1.2417    0.8756 C   0  0  0  0  0  0  0  0  0  0  0  0
   -0.9783   -0.0946    0.3164 N   0  0  0  0  0  0  0  0  0  0  0  0
   -0.2206   -1.2121    0.4974 C   0  0  0  0  0  0  0  0  0  0  0  0
    1.0270   -1.2379    1.2125 N   0  0  0  0  0  0  0  0  0  0  0  0
    1.3369   -2.3911    2.0644 C   0  0  0  0  0  0  0  0  0  0  0  0
    2.4385   -3.2494    1.4234 C   0  0  0  0  0  0  0  0  0  0  0  0
    3.5265   -2.4155    0.7087 C   0  0  0  0  0  0  0  0  0  0  0  0
    3.5015   -0.9311    1.1187 C   0  0  1  0  0  0  0  0  0  0  0  0
    4.5551   -0.1892    0.4171 N   0  0  0  0  0  0  0  0  0  0  0  0
    5.9373   -0.2892    0.7787 C   0  0  0  0  0  0  0  0  0  0  0  0
    6.2863   -1.0148    1.7490 O   0  0  0  0  0  0  0  0  0  0  0  0
    6.8847    0.4361    0.0408 O   0  0  0  0  0  0  0  0  0  0  0  0
    8.3035    0.4496    0.2594 C   0  0  0  0  0  0  0  0  0  0  0  0
    8.8937   -0.9624    0.0798 C   0  0  0  0  0  0  0  0  0  0  0  0
    8.9169    1.3814   -0.7969 C   0  0  0  0  0  0  0  0  0  0  0  0
    8.6318    1.0015    1.6600 C   0  0  0  0  0  0  0  0  0  0  0  0
    2.1140   -0.3316    0.8050 C   0  0  0  0  0  0  0  0  0  0  0  0
   -0.7271   -2.3167   -0.1093 N   0  0  0  0  0  0  0  0  0  0  0  0
   -1.8410   -1.8455   -0.7010 C   0  0  0  0  0  0  0  0  0  0  0  0
   -1.9923   -0.5217   -0.4629 C   0  0  0  0  0  0  0  0  0  0  0  0
   -3.0609    0.1714   -1.0219 C   0  0  0  0  0  0  0  0  0  0  0  0
   -3.1917    1.4096   -0.8277 O   0  0  0  0  0  0  0  0  0  0  0  0
   -3.9575   -0.5228   -1.8040 N   0  0  0  0  0  0  0  0  0  0  0  0
   -5.1177    0.1882   -2.3844 C   0  0  0  0  0  0  0  0  0  0  0  0
   -6.1922    0.4076   -1.3320 C   0  0  0  0  0  0  0  0  0  0  0  0
   -6.8908   -0.7337   -0.8974 C   0  0  0  0  0  0  0  0  0  0  0  0
   -7.8759   -0.6495    0.0869 C   0  0  0  0  0  0  0  0  0  0  0  0
   -8.5705   -1.8368    0.5131 C   0  0  0  0  0  0  0  0  0  0  0  0
   -9.1285   -2.7910    0.8556 N   0  0  0  0  0  0  0  0  0  0  0  0
   -8.1863    0.5818    0.6599 C   0  0  0  0  0  0  0  0  0  0  0  0
   -7.5170    1.7419    0.2507 C   0  0  0  0  0  0  0  0  0  0  0  0
   -7.8488    2.9724    0.8403 C   0  0  0  0  0  0  0  0  0  0  0  0
   -7.1989    4.1401    0.4475 C   0  0  0  0  0  0  0  0  0  0  0  0
   -6.2152    4.0931   -0.5365 C   0  0  0  0  0  0  0  0  0  0  0  0
   -5.8710    2.8791   -1.1358 C   0  0  0  0  0  0  0  0  0  0  0  0
   -6.5092    1.6746   -0.7545 C   0  0  0  0  0  0  0  0  0  0  0  0
   -3.7769   -1.8801   -2.0285 C   0  0  0  0  0  0  0  0  0  0  0  0
   -4.5855   -2.5103   -2.7671 O   0  0  0  0  0  0  0  0  0  0  0  0
   -2.7184   -2.5546   -1.4603 N   0  0  0  0  0  0  0  0  0  0  0  0
   -2.4985   -3.9830   -1.7251 C   0  0  0  0  0  0  0  0  0  0  0  0
    0.6594    3.5681   -2.8569 H   0  0  0  0  0  0  0  0  0  0  0  0
    2.2307    3.2359   -2.0184 H   0  0  0  0  0  0  0  0  0  0  0  0
    1.2246    4.6600   -1.5260 H   0  0  0  0  0  0  0  0  0  0  0  0
   -0.1658    1.1803    1.8070 H   0  0  0  0  0  0  0  0  0  0  0  0
   -1.7323    1.7055    1.1542 H   0  0  0  0  0  0  0  0  0  0  0  0
    1.6865   -2.0221    3.0530 H   0  0  0  0  0  0  0  0  0  0  0  0
    0.4322   -3.0107    2.2511 H   0  0  0  0  0  0  0  0  0  0  0  0
    2.9071   -3.8726    2.2158 H   0  0  0  0  0  0  0  0  0  0  0  0
    1.9751   -3.9432    0.6883 H   0  0  0  0  0  0  0  0  0  0  0  0
    4.5230   -2.8544    0.9299 H   0  0  0  0  0  0  0  0  0  0  0  0
    3.3739   -2.4847   -0.3915 H   0  0  0  0  0  0  0  0  0  0  0  0
    3.6764   -0.8507    2.2153 H   0  0  0  0  0  0  0  0  0  0  0  0
    4.3041    0.4746   -0.3504 H   0  0  0  0  0  0  0  0  0  0  0  0
    8.5470   -1.6509    0.8771 H   0  0  0  0  0  0  0  0  0  0  0  0
   10.0039   -0.9300    0.1221 H   0  0  0  0  0  0  0  0  0  0  0  0
    8.5884   -1.3832   -0.9021 H   0  0  0  0  0  0  0  0  0  0  0  0
   10.0215    1.4390   -0.6855 H   0  0  0  0  0  0  0  0  0  0  0  0
    8.4976    2.4058   -0.6971 H   0  0  0  0  0  0  0  0  0  0  0  0
    8.6834    1.0119   -1.8188 H   0  0  0  0  0  0  0  0  0  0  0  0
    8.1382    1.9856    1.8093 H   0  0  0  0  0  0  0  0  0  0  0  0
    9.7288    1.1330    1.7807 H   0  0  0  0  0  0  0  0  0  0  0  0
    8.2863    0.3133    2.4580 H   0  0  0  0  0  0  0  0  0  0  0  0
    2.0390   -0.1466   -0.2901 H   0  0  0  0  0  0  0  0  0  0  0  0
    2.0173    0.6393    1.3321 H   0  0  0  0  0  0  0  0  0  0  0  0
   -4.7769    1.1131   -2.8818 H   0  0  0  0  0  0  0  0  0  0  0  0
   -5.5662   -0.3872   -3.2227 H   0  0  0  0  0  0  0  0  0  0  0  0
   -6.6652   -1.7012   -1.3296 H   0  0  0  0  0  0  0  0  0  0  0  0
   -8.9531    0.6358    1.4257 H   0  0  0  0  0  0  0  0  0  0  0  0
   -8.6131    3.0309    1.6066 H   0  0  0  0  0  0  0  0  0  0  0  0
   -7.4596    5.0851    0.9066 H   0  0  0  0  0  0  0  0  0  0  0  0
   -5.7146    5.0042   -0.8385 H   0  0  0  0  0  0  0  0  0  0  0  0
   -5.1025    2.9195   -1.8883 H   0  0  0  0  0  0  0  0  0  0  0  0
   -1.8717   -4.4503   -0.9359 H   0  0  0  0  0  0  0  0  0  0  0  0
   -3.4645   -4.5317   -1.7381 H   0  0  0  0  0  0  0  0  0  0  0  0
   -1.9943   -4.1057   -2.7067 H   0  0  0  0  0  0  0  0  0  0  0  0
  1  2  1  0
  2  3  3  0
  3  4  1  0
  4  5  1  0
  5  6  1  0
  6  7  1  0
  7  8  1  0
  8  9  1  0
  9 10  1  0
 10 11  1  0
 11 12  1  0
 12 13  1  0
 13 14  2  0
 13 15  1  0
 15 16  1  0
 16 17  1  0
 16 18  1  0
 16 19  1  0
 11 20  1  0
  6 21  2  0
 21 22  1  0
 22 23  2  0
 23 24  1  0
 24 25  2  0
 24 26  1  0
 26 27  1  0
 27 28  1  0
 28 29  2  0
 29 30  1  0
 30 31  1  0
 31 32  3  0
 30 33  2  0
 33 34  1  0
 34 35  2  0
 35 36  1  0
 36 37  2  0
 37 38  1  0
 38 39  2  0
 26 40  1  0
 40 41  2  0
 40 42  1  0
 42 43  1  0
 23  5  1  0
 39 28  1  0
 20  7  1  0
 42 22  1  0
 39 34  1  0
  1 44  1  0
  1 45  1  0
  1 46  1  0
  4 47  1  0
  4 48  1  0
  8 49  1  0
  8 50  1  0
  9 51  1  0
  9 52  1  0
 10 53  1  0
 10 54  1  0
 11 55  1  1
 12 56  1  0
 17 57  1  0
 17 58  1  0
 17 59  1  0
 18 60  1  0
 18 61  1  0
 18 62  1  0
 19 63  1  0
 19 64  1  0
 19 65  1  0
 20 66  1  0
 20 67  1  0
 27 68  1  0
 27 69  1  0
 29 70  1  0
 33 71  1  0
 35 72  1  0
 36 73  1  0
 37 74  1  0
 38 75  1  0
 43 76  1  0
 43 77  1  0
 43 78  1  0
M  END
$$$$
