
     RDKit          3D

 46 49  0  0  0  0  0  0  0  0999 V2000
   -6.5856   -1.2432   -1.2866 C   0  0  0  0  0  0  0  0  0  0  0  0
   -5.8780   -0.3717   -0.4105 O   0  0  0  0  0  0  0  0  0  0  0  0
   -4.4815   -0.3499   -0.2635 C   0  0  0  0  0  0  0  0  0  0  0  0
   -3.6421   -1.2145   -0.9858 C   0  0  0  0  0  0  0  0  0  0  0  0
   -2.2511   -1.1667   -0.8184 C   0  0  0  0  0  0  0  0  0  0  0  0
   -1.4358   -2.0588   -1.5272 C   0  0  0  0  0  0  0  0  0  0  0  0
   -0.0564   -2.0474   -1.3453 C   0  0  0  0  0  0  0  0  0  0  0  0
    0.5344   -1.1324   -0.4753 C   0  0  0  0  0  0  0  0  0  0  0  0
   -0.2549   -0.1783    0.2075 C   0  0  0  0  0  0  0  0  0  0  0  0
   -1.6712   -0.2278    0.0730 C   0  0  0  0  0  0  0  0  0  0  0  0
   -2.5273    0.6188    0.8087 C   0  0  0  0  0  0  0  0  0  0  0  0
   -3.9241    0.5638    0.6395 C   0  0  0  0  0  0  0  0  0  0  0  0
   -4.7954    1.4022    1.3544 O   0  0  0  0  0  0  0  0  0  0  0  0
   -4.3830    2.3817    2.3023 C   0  0  0  0  0  0  0  0  0  0  0  0
    0.4379    0.8328    1.1099 C   0  0  0  0  0  0  0  0  0  0  0  0
    1.9354    1.0114    0.7769 C   0  0  0  0  0  0  0  0  0  0  0  0
    2.0917    1.7596   -0.4754 N   0  0  0  0  0  0  0  0  0  0  0  0
    2.5892   -0.3825    0.6775 C   0  0  0  0  0  0  0  0  0  0  0  0
    4.0877   -0.3144    0.4275 C   0  0  0  0  0  0  0  0  0  0  0  0
    4.9359   -0.2160    1.5472 C   0  0  0  0  0  0  0  0  0  0  0  0
    6.3204   -0.1280    1.3927 C   0  0  0  0  0  0  0  0  0  0  0  0
    6.8834   -0.1256    0.1167 C   0  0  0  0  0  0  0  0  0  0  0  0
    8.6235   -0.0126   -0.0747 Cl  0  0  0  0  0  0  0  0  0  0  0  0
    6.0598   -0.2041   -1.0079 C   0  0  0  0  0  0  0  0  0  0  0  0
    4.6685   -0.2922   -0.8690 C   0  0  0  0  0  0  0  0  0  0  0  0
    3.7189   -0.3466   -2.3529 Cl  0  0  0  0  0  0  0  0  0  0  0  0
    1.9231   -1.1683   -0.3069 O   0  0  0  0  0  0  0  0  0  0  0  0
   -6.2734   -1.0647   -2.3373 H   0  0  0  0  0  0  0  0  0  0  0  0
   -6.3991   -2.3013   -1.0056 H   0  0  0  0  0  0  0  0  0  0  0  0
   -7.6725   -1.0396   -1.2000 H   0  0  0  0  0  0  0  0  0  0  0  0
   -4.0669   -1.9319   -1.6764 H   0  0  0  0  0  0  0  0  0  0  0  0
   -1.8682   -2.7809   -2.2099 H   0  0  0  0  0  0  0  0  0  0  0  0
    0.5600   -2.7583   -1.8810 H   0  0  0  0  0  0  0  0  0  0  0  0
   -2.1220    1.3103    1.5296 H   0  0  0  0  0  0  0  0  0  0  0  0
   -3.8465    1.8962    3.1447 H   0  0  0  0  0  0  0  0  0  0  0  0
   -5.2794    2.8973    2.7034 H   0  0  0  0  0  0  0  0  0  0  0  0
   -3.7293    3.1349    1.8138 H   0  0  0  0  0  0  0  0  0  0  0  0
    0.3363    0.4900    2.1624 H   0  0  0  0  0  0  0  0  0  0  0  0
   -0.0491    1.8271    1.0297 H   0  0  0  0  0  0  0  0  0  0  0  0
    2.4125    1.5824    1.6065 H   0  0  0  0  0  0  0  0  0  0  0  0
    1.5697    2.6623   -0.3957 H   0  0  0  0  0  0  0  0  0  0  0  0
    3.0951    2.0372   -0.5691 H   0  0  0  0  0  0  0  0  0  0  0  0
    2.4293   -0.8953    1.6535 H   0  0  0  0  0  0  0  0  0  0  0  0
    4.5226   -0.2065    2.5485 H   0  0  0  0  0  0  0  0  0  0  0  0
    6.9545   -0.0585    2.2674 H   0  0  0  0  0  0  0  0  0  0  0  0
    6.5032   -0.1900   -1.9959 H   0  0  0  0  0  0  0  0  0  0  0  0
  1  2  1  0
  2  3  1  0
  3  4  2  0
  4  5  1  0
  5  6  2  0
  6  7  1  0
  7  8  2  0
  8  9  1  0
  9 10  2  0
 10 11  1  0
 11 12  2  0
 12 13  1  0
 13 14  1  0
  9 15  1  0
 15 16  1  0
 16 17  1  0
 16 18  1  0
 18 19  1  0
 19 20  2  0
 20 21  1  0
 21 22  2  0
 22 23  1  0
 22 24  1  0
 24 25  2  0
 25 26  1  0
 18 27  1  0
 12  3  1  0
 25 19  1  0
 10  5  1  0
 27  8  1  0
  1 28  1  0
  1 29  1  0
  1 30  1  0
  4 31  1  0
  6 32  1  0
  7 33  1  0
 11 34  1  0
 14 35  1  0
 14 36  1  0
 14 37  1  0
 15 38  1  0
 15 39  1  0
 16 40  1  0
 17 41  1  0
 17 42  1  0
 18 43  1  0
 20 44  1  0
 21 45  1  0
 24 46  1  0
M  END
$$$$
