
     RDKit          3D

 45 47  0  0  0  0  0  0  0  0999 V2000
    5.0847    1.8164   -4.4764 N   0  0  0  0  0  0  0  0  0  0  0  0
    4.9987    1.3692   -3.4125 C   0  0  0  0  0  0  0  0  0  0  0  0
    4.8914    0.8128   -2.0884 C   0  0  0  0  0  0  0  0  0  0  0  0
    3.8117    1.1681   -1.2688 C   0  0  0  0  0  0  0  0  0  0  0  0
    3.6968    0.6325    0.0243 C   0  0  0  0  0  0  0  0  0  0  0  0
    2.5198    1.0010    0.8886 C   0  0  0  0  0  0  0  0  0  0  0  0
    1.2811    0.4167    0.3411 N   0  0  0  0  0  0  0  0  0  0  0  0
    1.2023   -1.0450    0.5271 C   0  0  0  0  0  0  0  0  0  0  0  0
   -0.1629   -1.3686    1.1383 C   0  0  2  0  0  0  0  0  0  0  0  0
   -0.7803   -2.5371    0.5068 N   0  0  0  0  0  0  0  0  0  0  0  0
   -0.9829   -0.0902    0.9608 C   0  0  2  0  0  0  0  0  0  0  0  0
   -1.7635   -0.0553   -0.3450 C   0  0  0  0  0  0  0  0  0  0  0  0
   -1.1355   -0.1836   -1.4326 O   0  0  0  0  0  0  0  0  0  0  0  0
   -3.1953    0.1206   -0.3799 N   0  0  0  0  0  0  0  0  0  0  0  0
   -3.9312    0.1888   -1.6331 C   0  0  0  0  0  0  0  0  0  0  0  0
   -5.3964    0.3407   -1.2483 C   0  0  0  0  0  0  0  0  0  0  0  0
   -5.3930    0.8036    0.2047 C   0  0  0  0  0  0  0  0  0  0  0  0
   -4.0499    0.3513    0.7781 C   0  0  1  0  0  0  0  0  0  0  0  0
   -4.2020   -0.8947    1.5482 C   0  0  0  0  0  0  0  0  0  0  0  0
   -4.3209   -1.8737    2.1536 N   0  0  0  0  0  0  0  0  0  0  0  0
    0.0868    0.9926    0.9740 C   0  0  0  0  0  0  0  0  0  0  0  0
    4.6685   -0.2700    0.4859 C   0  0  0  0  0  0  0  0  0  0  0  0
    5.7452   -0.6239   -0.3318 C   0  0  0  0  0  0  0  0  0  0  0  0
    5.8600   -0.0849   -1.6166 C   0  0  0  0  0  0  0  0  0  0  0  0
    6.9114   -0.4400   -2.3986 F   0  0  0  0  0  0  0  0  0  0  0  0
    3.0592    1.8577   -1.6345 H   0  0  0  0  0  0  0  0  0  0  0  0
    2.4394    2.1112    0.8970 H   0  0  0  0  0  0  0  0  0  0  0  0
    2.6780    0.6812    1.9442 H   0  0  0  0  0  0  0  0  0  0  0  0
    2.0069   -1.4432    1.1861 H   0  0  0  0  0  0  0  0  0  0  0  0
    1.3103   -1.5275   -0.4685 H   0  0  0  0  0  0  0  0  0  0  0  0
   -0.0311   -1.5617    2.2291 H   0  0  0  0  0  0  0  0  0  0  0  0
   -0.1709   -3.3661    0.6952 H   0  0  0  0  0  0  0  0  0  0  0  0
   -1.6869   -2.7249    0.9930 H   0  0  0  0  0  0  0  0  0  0  0  0
   -1.6510    0.0417    1.8353 H   0  0  0  0  0  0  0  0  0  0  0  0
   -3.7763   -0.7395   -2.2248 H   0  0  0  0  0  0  0  0  0  0  0  0
   -3.5912    1.0714   -2.2176 H   0  0  0  0  0  0  0  0  0  0  0  0
   -5.9167    1.0705   -1.9059 H   0  0  0  0  0  0  0  0  0  0  0  0
   -5.9053   -0.6458   -1.3202 H   0  0  0  0  0  0  0  0  0  0  0  0
   -6.2687    0.4008    0.7615 H   0  0  0  0  0  0  0  0  0  0  0  0
   -5.4442    1.9148    0.2290 H   0  0  0  0  0  0  0  0  0  0  0  0
   -3.6305    1.1517    1.4251 H   0  0  0  0  0  0  0  0  0  0  0  0
    0.2887    1.2779    2.0335 H   0  0  0  0  0  0  0  0  0  0  0  0
   -0.2373    1.9037    0.4245 H   0  0  0  0  0  0  0  0  0  0  0  0
    4.5921   -0.7016    1.4761 H   0  0  0  0  0  0  0  0  0  0  0  0
    6.4909   -1.3194    0.0313 H   0  0  0  0  0  0  0  0  0  0  0  0
  1  2  3  0
  2  3  1  0
  3  4  2  0
  4  5  1  0
  5  6  1  0
  6  7  1  0
  7  8  1  0
  8  9  1  0
  9 10  1  0
  9 11  1  0
 11 12  1  0
 12 13  2  0
 12 14  1  0
 14 15  1  0
 15 16  1  0
 16 17  1  0
 17 18  1  0
 18 19  1  0
 19 20  3  0
 11 21  1  0
  5 22  2  0
 22 23  1  0
 23 24  2  0
 24 25  1  0
 24  3  1  0
 21  7  1  0
 18 14  1  0
  4 26  1  0
  6 27  1  0
  6 28  1  0
  8 29  1  0
  8 30  1  0
  9 31  1  1
 10 32  1  0
 10 33  1  0
 11 34  1  1
 15 35  1  0
 15 36  1  0
 16 37  1  0
 16 38  1  0
 17 39  1  0
 17 40  1  0
 18 41  1  1
 21 42  1  0
 21 43  1  0
 22 44  1  0
 23 45  1  0
M  END
$$$$
