
     RDKit          3D

 53 53  0  0  0  0  0  0  0  0999 V2000
    3.7422   -3.5948   -0.3513 C   0  0  0  0  0  0  0  0  0  0  0  0
    2.8861   -2.3524   -0.5651 C   0  0  0  0  0  0  0  0  0  0  0  0
    3.2499   -1.3253    0.3550 O   0  0  0  0  0  0  0  0  0  0  0  0
    2.8810   -1.3362    1.7047 C   0  0  0  0  0  0  0  0  0  0  0  0
    2.1529   -2.2562    2.1675 O   0  0  0  0  0  0  0  0  0  0  0  0
    3.2957   -0.2053    2.5886 C   0  0  0  0  0  0  0  0  0  0  0  0
    2.3168    0.8731    2.4967 N   0  0  0  0  0  0  0  0  0  0  0  0
    2.3031    1.8023    1.4045 C   0  0  0  0  0  0  0  0  0  0  0  0
    3.3171    1.9279    0.6644 O   0  0  0  0  0  0  0  0  0  0  0  0
    1.0886    2.6522    1.1604 C   0  0  0  0  0  0  0  0  0  0  0  0
    1.3563    4.2767    1.9322 S   0  0  0  0  0  0  0  0  0  0  0  0
    0.6378    5.1196    0.4981 C   0  0  0  0  0  0  0  0  0  0  0  0
    0.8444    4.2364   -0.7184 C   0  0  0  0  0  0  0  0  0  0  0  0
    0.8564    2.8506   -0.2710 N   0  0  0  0  0  0  0  0  0  0  0  0
    0.6406    1.7759   -1.2121 C   0  0  0  0  0  0  0  0  0  0  0  0
    0.7173    2.0117   -2.4489 O   0  0  0  0  0  0  0  0  0  0  0  0
    0.2709    0.3805   -0.7766 C   0  0  0  0  0  0  0  0  0  0  0  0
   -1.2353    0.1024   -0.9671 C   0  0  2  0  0  0  0  0  0  0  0  0
   -2.0498    0.9346   -0.0747 N   0  0  0  0  0  0  0  0  0  0  0  0
   -1.5351   -1.3872   -0.7124 C   0  0  0  0  0  0  0  0  0  0  0  0
   -2.9806   -1.7158   -0.9931 C   0  0  0  0  0  0  0  0  0  0  0  0
   -3.9161   -1.7291    0.0557 C   0  0  0  0  0  0  0  0  0  0  0  0
   -5.2624   -2.0056   -0.2018 C   0  0  0  0  0  0  0  0  0  0  0  0
   -6.1564   -2.0190    0.8178 F   0  0  0  0  0  0  0  0  0  0  0  0
   -5.6865   -2.2641   -1.5087 C   0  0  0  0  0  0  0  0  0  0  0  0
   -6.9921   -2.5311   -1.7599 F   0  0  0  0  0  0  0  0  0  0  0  0
   -4.7649   -2.2430   -2.5593 C   0  0  0  0  0  0  0  0  0  0  0  0
   -3.4170   -1.9666   -2.3075 C   0  0  0  0  0  0  0  0  0  0  0  0
   -2.5402   -1.9417   -3.3433 F   0  0  0  0  0  0  0  0  0  0  0  0
    0.6878    0.0000    0.0000 Cl  0  0  0  0  0  0  0  0  0  0  0  0
    4.8174   -3.3359   -0.4530 H   0  0  0  0  0  0  0  0  0  0  0  0
    3.5636   -4.0193    0.6585 H   0  0  0  0  0  0  0  0  0  0  0  0
    3.4830   -4.3617   -1.1113 H   0  0  0  0  0  0  0  0  0  0  0  0
    3.0525   -1.9773   -1.5968 H   0  0  0  0  0  0  0  0  0  0  0  0
    1.8080   -2.6034   -0.4596 H   0  0  0  0  0  0  0  0  0  0  0  0
    4.3041    0.1588    2.2974 H   0  0  0  0  0  0  0  0  0  0  0  0
    3.3563   -0.5587    3.6407 H   0  0  0  0  0  0  0  0  0  0  0  0
    1.5197    0.8735    3.1725 H   0  0  0  0  0  0  0  0  0  0  0  0
    0.1896    2.1899    1.6189 H   0  0  0  0  0  0  0  0  0  0  0  0
   -0.4491    5.2603    0.6812 H   0  0  0  0  0  0  0  0  0  0  0  0
    1.1163    6.1110    0.3534 H   0  0  0  0  0  0  0  0  0  0  0  0
    1.8152    4.4723   -1.2053 H   0  0  0  0  0  0  0  0  0  0  0  0
    0.0180    4.4068   -1.4428 H   0  0  0  0  0  0  0  0  0  0  0  0
    0.8543   -0.3300   -1.4009 H   0  0  0  0  0  0  0  0  0  0  0  0
    0.5537    0.1831    0.2753 H   0  0  0  0  0  0  0  0  0  0  0  0
   -1.5077    0.3348   -2.0216 H   0  0  0  0  0  0  0  0  0  0  0  0
   -1.7254    0.8108    0.9120 H   0  0  0  0  0  0  0  0  0  0  0  0
   -1.9243    1.9407   -0.3301 H   0  0  0  0  0  0  0  0  0  0  0  0
   -0.8873   -2.0173   -1.3609 H   0  0  0  0  0  0  0  0  0  0  0  0
   -1.2801   -1.6477    0.3390 H   0  0  0  0  0  0  0  0  0  0  0  0
   -3.6023   -1.5227    1.0716 H   0  0  0  0  0  0  0  0  0  0  0  0
   -5.0960   -2.4383   -3.5712 H   0  0  0  0  0  0  0  0  0  0  0  0
   -0.6878    0.0000    0.0000 H   0  0  0  0  0  0  0  0  0  0  0  0
  1  2  1  0
  2  3  1  0
  3  4  1  0
  4  5  2  0
  4  6  1  0
  6  7  1  0
  7  8  1  0
  8  9  2  0
  8 10  1  0
 10 11  1  0
 11 12  1  0
 12 13  1  0
 13 14  1  0
 14 15  1  0
 15 16  2  0
 15 17  1  0
 17 18  1  0
 18 19  1  0
 18 20  1  0
 20 21  1  0
 21 22  2  0
 22 23  1  0
 23 24  1  0
 23 25  2  0
 25 26  1  0
 25 27  1  0
 27 28  2  0
 28 29  1  0
 14 10  1  0
 28 21  1  0
  1 31  1  0
  1 32  1  0
  1 33  1  0
  2 34  1  0
  2 35  1  0
  6 36  1  0
  6 37  1  0
  7 38  1  0
 10 39  1  0
 12 40  1  0
 12 41  1  0
 13 42  1  0
 13 43  1  0
 17 44  1  0
 17 45  1  0
 18 46  1  6
 19 47  1  0
 19 48  1  0
 20 49  1  0
 20 50  1  0
 22 51  1  0
 27 52  1  0
 30 53  1  0
M  END
$$$$
