
     RDKit          3D

 44 46  0  0  0  0  0  0  0  0999 V2000
   -2.2998    1.4491    1.0489 C   0  0  0  0  0  0  0  0  0  0  0  0
   -1.9489    0.8504   -0.3425 C   0  0  0  0  0  0  0  0  0  0  0  0
   -0.8189    1.7429   -0.9886 C   0  0  2  0  0  0  0  0  0  0  0  0
   -0.5141    1.3848   -2.3801 N   0  0  0  0  0  0  0  0  0  0  0  0
    0.4328    1.8970   -0.1272 C   0  0  0  0  0  0  0  0  0  0  0  0
    0.5380    2.9506    0.5590 O   0  0  0  0  0  0  0  0  0  0  0  0
    1.4496    0.8828    0.0141 N   0  0  0  0  0  0  0  0  0  0  0  0
    2.3248    0.8343    1.1904 C   0  0  0  0  0  0  0  0  0  0  0  0
    3.3509   -0.1654    0.8159 C   0  0  0  0  0  0  0  0  0  0  0  0
    4.4346   -0.6091    1.5755 C   0  0  0  0  0  0  0  0  0  0  0  0
    5.2971   -1.5665    1.0171 C   0  0  0  0  0  0  0  0  0  0  0  0
    5.0641   -2.0596   -0.2817 C   0  0  0  0  0  0  0  0  0  0  0  0
    5.9004   -2.9844   -0.8138 F   0  0  0  0  0  0  0  0  0  0  0  0
    3.9672   -1.5964   -1.0269 C   0  0  0  0  0  0  0  0  0  0  0  0
    3.1247   -0.6436   -0.4513 C   0  0  0  0  0  0  0  0  0  0  0  0
    1.9136   -0.0260   -1.0402 C   0  0  0  0  0  0  0  0  0  0  0  0
   -3.2376    0.9005   -1.2466 C   0  0  0  0  0  0  0  0  0  0  0  0
   -3.9029   -0.4664   -1.4839 C   0  0  0  0  0  0  0  0  0  0  0  0
   -3.9754   -1.2813   -0.1920 C   0  0  0  0  0  0  0  0  0  0  0  0
   -2.5836   -1.5452    0.4158 C   0  0  0  0  0  0  0  0  0  0  0  0
   -1.4791   -0.6233   -0.1395 C   0  0  0  0  0  0  0  0  0  0  0  0
   -2.5278    2.5336    0.9653 H   0  0  0  0  0  0  0  0  0  0  0  0
   -1.4576    1.3253    1.7629 H   0  0  0  0  0  0  0  0  0  0  0  0
   -3.1906    0.9586    1.4918 H   0  0  0  0  0  0  0  0  0  0  0  0
   -1.2579    2.7655   -1.0532 H   0  0  0  0  0  0  0  0  0  0  0  0
   -0.2571    0.3828   -2.4816 H   0  0  0  0  0  0  0  0  0  0  0  0
    0.2824    1.9688   -2.7247 H   0  0  0  0  0  0  0  0  0  0  0  0
    2.8026    1.8217    1.3674 H   0  0  0  0  0  0  0  0  0  0  0  0
    1.7537    0.4979    2.0817 H   0  0  0  0  0  0  0  0  0  0  0  0
    4.6073   -0.2244    2.5722 H   0  0  0  0  0  0  0  0  0  0  0  0
    6.1436   -1.9256    1.5879 H   0  0  0  0  0  0  0  0  0  0  0  0
    3.7784   -1.9707   -2.0248 H   0  0  0  0  0  0  0  0  0  0  0  0
    2.1816    0.5393   -1.9575 H   0  0  0  0  0  0  0  0  0  0  0  0
    1.1685   -0.8193   -1.2407 H   0  0  0  0  0  0  0  0  0  0  0  0
   -3.9982    1.5838   -0.8069 H   0  0  0  0  0  0  0  0  0  0  0  0
   -3.0199    1.3299   -2.2473 H   0  0  0  0  0  0  0  0  0  0  0  0
   -4.9297   -0.3124   -1.8810 H   0  0  0  0  0  0  0  0  0  0  0  0
   -3.3308   -1.0353   -2.2495 H   0  0  0  0  0  0  0  0  0  0  0  0
   -4.6087   -0.7369    0.5419 H   0  0  0  0  0  0  0  0  0  0  0  0
   -4.4781   -2.2506   -0.4003 H   0  0  0  0  0  0  0  0  0  0  0  0
   -2.2913   -2.5998    0.2179 H   0  0  0  0  0  0  0  0  0  0  0  0
   -2.6409   -1.4328    1.5204 H   0  0  0  0  0  0  0  0  0  0  0  0
   -0.6110   -0.6683    0.5513 H   0  0  0  0  0  0  0  0  0  0  0  0
   -1.1562   -1.0563   -1.1069 H   0  0  0  0  0  0  0  0  0  0  0  0
  1  2  1  0
  2  3  1  0
  3  4  1  0
  3  5  1  0
  5  6  2  0
  5  7  1  0
  7  8  1  0
  8  9  1  0
  9 10  2  0
 10 11  1  0
 11 12  2  0
 12 13  1  0
 12 14  1  0
 14 15  2  0
 15 16  1  0
  2 17  1  0
 17 18  1  0
 18 19  1  0
 19 20  1  0
 20 21  1  0
 21  2  1  0
 16  7  1  0
 15  9  1  0
  1 22  1  0
  1 23  1  0
  1 24  1  0
  3 25  1  6
  4 26  1  0
  4 27  1  0
  8 28  1  0
  8 29  1  0
 10 30  1  0
 11 31  1  0
 14 32  1  0
 16 33  1  0
 16 34  1  0
 17 35  1  0
 17 36  1  0
 18 37  1  0
 18 38  1  0
 19 39  1  0
 19 40  1  0
 20 41  1  0
 20 42  1  0
 21 43  1  0
 21 44  1  0
M  END
$$$$
