
     RDKit          3D

 61 62  0  0  0  0  0  0  0  0999 V2000
    5.8367   -3.0524    0.3832 C   0  0  0  0  0  0  0  0  0  0  0  0
    5.6463   -2.2465   -0.8974 C   0  0  0  0  0  0  0  0  0  0  0  0
    5.2828   -0.8556   -0.5799 N   0  0  0  0  0  0  0  0  0  0  0  0
    3.9582   -0.5314   -0.4575 C   0  0  0  0  0  0  0  0  0  0  0  0
    3.5591    0.7767   -0.1337 C   0  0  0  0  0  0  0  0  0  0  0  0
    2.1209    1.1244   -0.0054 C   0  0  0  0  0  0  0  0  0  0  0  0
    1.2251    0.2423    0.6224 C   0  0  0  0  0  0  0  0  0  0  0  0
   -0.1280    0.5688    0.7416 C   0  0  0  0  0  0  0  0  0  0  0  0
   -0.6173    1.7915    0.2432 C   0  0  0  0  0  0  0  0  0  0  0  0
   -2.0938    2.1562    0.3212 C   0  0  2  0  0  0  0  0  0  0  0  0
   -2.6926    1.8643    1.7076 C   0  0  0  0  0  0  0  0  0  0  0  0
   -2.8985    1.5378   -0.8584 C   0  0  2  0  0  0  0  0  0  0  0  0
   -4.2737    2.0390   -0.8840 N   0  0  0  0  0  0  0  0  0  0  0  0
   -2.8561    0.0189   -0.8773 C   0  0  0  0  0  0  0  0  0  0  0  0
   -1.9780   -0.5332   -1.5954 O   0  0  0  0  0  0  0  0  0  0  0  0
   -3.7113   -0.8120   -0.0633 N   0  0  0  0  0  0  0  0  0  0  0  0
   -3.3661   -2.1897    0.2513 C   0  0  0  0  0  0  0  0  0  0  0  0
   -4.6188   -2.8087    0.8562 C   0  0  0  0  0  0  0  0  0  0  0  0
   -5.5133   -1.6360    1.2433 C   0  0  2  0  0  0  0  0  0  0  0  0
   -6.8462   -1.9258    1.0044 F   0  0  0  0  0  0  0  0  0  0  0  0
   -5.0471   -0.4602    0.3952 C   0  0  0  0  0  0  0  0  0  0  0  0
    0.2779    2.6646   -0.3981 C   0  0  0  0  0  0  0  0  0  0  0  0
    1.6316    2.3388   -0.5153 C   0  0  0  0  0  0  0  0  0  0  0  0
    4.5504    1.7457    0.0692 C   0  0  0  0  0  0  0  0  0  0  0  0
    5.8951    1.4036   -0.0413 C   0  0  0  0  0  0  0  0  0  0  0  0
    6.2518    0.0919   -0.3616 C   0  0  0  0  0  0  0  0  0  0  0  0
    7.4751   -0.2056   -0.4441 O   0  0  0  0  0  0  0  0  0  0  0  0
    0.8446    0.8309   -1.2469 O   0  0  0  0  0  0  0  0  0  0  0  0
    0.4797    0.0993   -0.2879 C   0  0  0  0  0  0  0  0  0  0  0  0
    1.4194   -0.6641    0.3983 O   0  0  0  0  0  0  0  0  0  0  0  0
   -0.9492    0.0973    0.1495 C   0  0  0  0  0  0  0  0  0  0  0  0
   -1.2345   -1.0737    0.8276 F   0  0  0  0  0  0  0  0  0  0  0  0
   -1.7808    0.1936   -0.9516 F   0  0  0  0  0  0  0  0  0  0  0  0
   -1.1740    1.1738    0.9865 F   0  0  0  0  0  0  0  0  0  0  0  0
    6.6515   -2.6119    0.9957 H   0  0  0  0  0  0  0  0  0  0  0  0
    4.8967   -3.0562    0.9748 H   0  0  0  0  0  0  0  0  0  0  0  0
    6.1051   -4.0995    0.1296 H   0  0  0  0  0  0  0  0  0  0  0  0
    4.8549   -2.7260   -1.5156 H   0  0  0  0  0  0  0  0  0  0  0  0
    6.5792   -2.2826   -1.5014 H   0  0  0  0  0  0  0  0  0  0  0  0
    3.2021   -1.2894   -0.6281 H   0  0  0  0  0  0  0  0  0  0  0  0
    1.5730   -0.6969    1.0338 H   0  0  0  0  0  0  0  0  0  0  0  0
   -0.7890   -0.1421    1.2174 H   0  0  0  0  0  0  0  0  0  0  0  0
   -2.1657    3.2618    0.2073 H   0  0  0  0  0  0  0  0  0  0  0  0
   -2.7683    0.7768    1.9065 H   0  0  0  0  0  0  0  0  0  0  0  0
   -3.7047    2.3134    1.7882 H   0  0  0  0  0  0  0  0  0  0  0  0
   -2.0581    2.3219    2.4965 H   0  0  0  0  0  0  0  0  0  0  0  0
   -2.4049    1.8886   -1.7957 H   0  0  0  0  0  0  0  0  0  0  0  0
   -4.2477    3.0813   -0.9696 H   0  0  0  0  0  0  0  0  0  0  0  0
   -4.7326    1.6914   -1.7578 H   0  0  0  0  0  0  0  0  0  0  0  0
   -2.5298   -2.2036    0.9833 H   0  0  0  0  0  0  0  0  0  0  0  0
   -3.0711   -2.7417   -0.6677 H   0  0  0  0  0  0  0  0  0  0  0  0
   -5.1287   -3.4361    0.0919 H   0  0  0  0  0  0  0  0  0  0  0  0
   -4.3733   -3.4379    1.7392 H   0  0  0  0  0  0  0  0  0  0  0  0
   -5.3725   -1.4011    2.3216 H   0  0  0  0  0  0  0  0  0  0  0  0
   -5.7152   -0.3218   -0.4824 H   0  0  0  0  0  0  0  0  0  0  0  0
   -5.0342    0.4599    1.0120 H   0  0  0  0  0  0  0  0  0  0  0  0
   -0.0729    3.6002   -0.8157 H   0  0  0  0  0  0  0  0  0  0  0  0
    2.2923    3.0285   -1.0254 H   0  0  0  0  0  0  0  0  0  0  0  0
    4.2866    2.7614    0.3362 H   0  0  0  0  0  0  0  0  0  0  0  0
    6.6572    2.1542    0.1295 H   0  0  0  0  0  0  0  0  0  0  0  0
    2.3947   -0.6571    0.1243 H   0  0  0  0  0  0  0  0  0  0  0  0
  1  2  1  0
  2  3  1  0
  3  4  1  0
  4  5  2  0
  5  6  1  0
  6  7  2  0
  7  8  1  0
  8  9  2  0
  9 10  1  0
 10 11  1  0
 10 12  1  0
 12 13  1  0
 12 14  1  0
 14 15  2  0
 14 16  1  0
 16 17  1  0
 17 18  1  0
 18 19  1  0
 19 20  1  0
 19 21  1  0
  9 22  1  0
 22 23  2  0
  5 24  1  0
 24 25  2  0
 25 26  1  0
 26 27  2  0
 28 29  2  0
 29 30  1  0
 29 31  1  0
 31 32  1  0
 31 33  1  0
 31 34  1  0
 26  3  1  0
 23  6  1  0
 21 16  1  0
  1 35  1  0
  1 36  1  0
  1 37  1  0
  2 38  1  0
  2 39  1  0
  4 40  1  0
  7 41  1  0
  8 42  1  0
 10 43  1  6
 11 44  1  0
 11 45  1  0
 11 46  1  0
 12 47  1  6
 13 48  1  0
 13 49  1  0
 17 50  1  0
 17 51  1  0
 18 52  1  0
 18 53  1  0
 19 54  1  1
 21 55  1  0
 21 56  1  0
 22 57  1  0
 23 58  1  0
 24 59  1  0
 25 60  1  0
 30 61  1  0
M  END
$$$$
