
     RDKit          3D

 67 71  0  0  0  0  0  0  0  0999 V2000
   -0.7523    4.0078   -0.9529 C   0  0  0  0  0  0  0  0  0  0  0  0
   -0.4106    3.3722    0.3692 C   0  0  0  0  0  0  0  0  0  0  0  0
   -0.1901    4.2392    1.5854 C   0  0  0  0  0  0  0  0  0  0  0  0
   -0.3106    2.0291    0.4337 C   0  0  0  0  0  0  0  0  0  0  0  0
    0.0261    1.2830    1.6988 C   0  0  0  0  0  0  0  0  0  0  0  0
   -0.0713   -0.1591    1.4693 N   0  0  0  0  0  0  0  0  0  0  0  0
   -1.2636   -0.9306    1.4140 C   0  0  0  0  0  0  0  0  0  0  0  0
   -2.6564   -0.3527    1.5098 C   0  0  0  0  0  0  0  0  0  0  0  0
   -3.3523   -0.7517    2.8018 C   0  0  0  0  0  0  0  0  0  0  0  0
   -4.8339   -0.6058    2.4989 C   0  0  0  0  0  0  0  0  0  0  0  0
   -4.9881   -0.8931    1.0015 C   0  0  1  0  0  0  0  0  0  0  0  0
   -5.8210    0.1305    0.3565 N   0  0  0  0  0  0  0  0  0  0  0  0
   -4.9241    0.9587   -0.4486 C   0  0  0  0  0  0  0  0  0  0  0  0
   -3.7007    0.1260   -0.7735 C   0  0  0  0  0  0  0  0  0  0  0  0
   -3.5903   -0.8443    0.3893 C   0  0  1  0  0  0  0  0  0  0  0  0
   -1.0493   -2.1957    1.2969 N   0  0  0  0  0  0  0  0  0  0  0  0
    0.3829   -2.4655    1.2341 C   0  0  0  0  0  0  0  0  0  0  0  0
    1.0579   -1.0659    1.3254 C   0  0  0  0  0  0  0  0  0  0  0  0
    1.8717   -0.6721    0.1248 C   0  0  0  0  0  0  0  0  0  0  0  0
    2.7511    0.2226    0.2495 O   0  0  0  0  0  0  0  0  0  0  0  0
    1.5975   -1.2389   -1.1617 N   0  0  0  0  0  0  0  0  0  0  0  0
    2.0094   -0.5459   -2.3893 C   0  0  0  0  0  0  0  0  0  0  0  0
    3.3914   -0.9852   -2.7956 C   0  0  0  0  0  0  0  0  0  0  0  0
    3.5029   -2.0219   -3.5048 O   0  0  0  0  0  0  0  0  0  0  0  0
    4.6198   -0.3059   -2.3143 C   0  0  0  0  0  0  0  0  0  0  0  0
    4.6616    1.0862   -2.1012 C   0  0  0  0  0  0  0  0  0  0  0  0
    5.8335    1.6972   -1.6441 C   0  0  0  0  0  0  0  0  0  0  0  0
    6.9762    0.9321   -1.4030 C   0  0  0  0  0  0  0  0  0  0  0  0
    6.9521   -0.4461   -1.6245 C   0  0  0  0  0  0  0  0  0  0  0  0
    5.7835   -1.0625   -2.0816 C   0  0  0  0  0  0  0  0  0  0  0  0
    1.0395   -2.5575   -1.2090 C   0  0  0  0  0  0  0  0  0  0  0  0
    0.8956   -3.1455   -2.3166 O   0  0  0  0  0  0  0  0  0  0  0  0
    0.6813   -3.2258    0.0109 N   0  0  0  0  0  0  0  0  0  0  0  0
    0.4070   -4.6651   -0.0170 C   0  0  0  0  0  0  0  0  0  0  0  0
    0.0244    3.7511   -1.7043 H   0  0  0  0  0  0  0  0  0  0  0  0
   -1.7365    3.6324   -1.3056 H   0  0  0  0  0  0  0  0  0  0  0  0
   -0.8094    5.1134   -0.8744 H   0  0  0  0  0  0  0  0  0  0  0  0
   -0.9423    3.9959    2.3648 H   0  0  0  0  0  0  0  0  0  0  0  0
    0.8297    4.0711    1.9909 H   0  0  0  0  0  0  0  0  0  0  0  0
   -0.2877    5.3171    1.3399 H   0  0  0  0  0  0  0  0  0  0  0  0
   -0.4700    1.4479   -0.4718 H   0  0  0  0  0  0  0  0  0  0  0  0
    1.0606    1.5447    2.0078 H   0  0  0  0  0  0  0  0  0  0  0  0
   -0.6590    1.5717    2.5238 H   0  0  0  0  0  0  0  0  0  0  0  0
   -2.6112    0.7579    1.4901 H   0  0  0  0  0  0  0  0  0  0  0  0
   -3.0445   -0.0991    3.6478 H   0  0  0  0  0  0  0  0  0  0  0  0
   -3.1355   -1.8133    3.0578 H   0  0  0  0  0  0  0  0  0  0  0  0
   -5.1533    0.4336    2.7370 H   0  0  0  0  0  0  0  0  0  0  0  0
   -5.4357   -1.3136    3.1094 H   0  0  0  0  0  0  0  0  0  0  0  0
   -5.4311   -1.9068    0.8599 H   0  0  0  0  0  0  0  0  0  0  0  0
   -6.4812   -0.3534   -0.2974 H   0  0  0  0  0  0  0  0  0  0  0  0
   -5.4260    1.3093   -1.3778 H   0  0  0  0  0  0  0  0  0  0  0  0
   -4.6236    1.8480    0.1475 H   0  0  0  0  0  0  0  0  0  0  0  0
   -2.7952    0.7560   -0.9049 H   0  0  0  0  0  0  0  0  0  0  0  0
   -3.8829   -0.4416   -1.7126 H   0  0  0  0  0  0  0  0  0  0  0  0
   -3.2993   -1.8562    0.0264 H   0  0  0  0  0  0  0  0  0  0  0  0
    0.6761   -3.0609    2.1273 H   0  0  0  0  0  0  0  0  0  0  0  0
    1.6915   -1.0147    2.2387 H   0  0  0  0  0  0  0  0  0  0  0  0
    1.9449    0.5504   -2.2442 H   0  0  0  0  0  0  0  0  0  0  0  0
    1.2953   -0.7746   -3.2102 H   0  0  0  0  0  0  0  0  0  0  0  0
    3.8058    1.7131   -2.3058 H   0  0  0  0  0  0  0  0  0  0  0  0
    5.8572    2.7673   -1.4830 H   0  0  0  0  0  0  0  0  0  0  0  0
    7.8819    1.4080   -1.0498 H   0  0  0  0  0  0  0  0  0  0  0  0
    7.8393   -1.0382   -1.4408 H   0  0  0  0  0  0  0  0  0  0  0  0
    5.7848   -2.1340   -2.2396 H   0  0  0  0  0  0  0  0  0  0  0  0
   -0.4068   -4.8815   -0.7412 H   0  0  0  0  0  0  0  0  0  0  0  0
    1.3240   -5.2136   -0.3188 H   0  0  0  0  0  0  0  0  0  0  0  0
    0.0892   -5.0352    0.9812 H   0  0  0  0  0  0  0  0  0  0  0  0
  1  2  1  0
  2  3  1  0
  2  4  2  3
  4  5  1  0
  5  6  1  0
  6  7  1  0
  7  8  1  0
  8  9  1  0
  9 10  1  0
 10 11  1  0
 11 12  1  0
 12 13  1  0
 13 14  1  0
 14 15  1  0
  7 16  2  0
 16 17  1  0
 17 18  1  0
 18 19  1  0
 19 20  2  0
 19 21  1  0
 21 22  1  0
 22 23  1  0
 23 24  2  0
 23 25  1  0
 25 26  2  0
 26 27  1  0
 27 28  2  0
 28 29  1  0
 29 30  2  0
 21 31  1  0
 31 32  2  0
 31 33  1  0
 33 34  1  0
 18  6  1  0
 30 25  1  0
 15  8  1  0
 33 17  1  0
 15 11  1  0
  1 35  1  0
  1 36  1  0
  1 37  1  0
  3 38  1  0
  3 39  1  0
  3 40  1  0
  4 41  1  0
  5 42  1  0
  5 43  1  0
  8 44  1  0
  9 45  1  0
  9 46  1  0
 10 47  1  0
 10 48  1  0
 11 49  1  1
 12 50  1  0
 13 51  1  0
 13 52  1  0
 14 53  1  0
 14 54  1  0
 15 55  1  6
 17 56  1  0
 18 57  1  0
 22 58  1  0
 22 59  1  0
 26 60  1  0
 27 61  1  0
 28 62  1  0
 29 63  1  0
 30 64  1  0
 34 65  1  0
 34 66  1  0
 34 67  1  0
M  END
$$$$
