
     RDKit          3D

 35 36  0  0  0  0  0  0  0  0999 V2000
    3.5137    2.2014    0.9823 N   0  0  0  0  0  0  0  0  0  0  0  0
    2.9196    1.2606    0.6647 C   0  0  0  0  0  0  0  0  0  0  0  0
    2.1624    0.0644    0.2600 C   0  0  2  0  0  0  0  0  0  0  0  0
    3.0572   -1.1750    0.2598 C   0  0  0  0  0  0  0  0  0  0  0  0
    3.4590   -1.3937   -1.1966 C   0  0  2  0  0  0  0  0  0  0  0  0
    4.6889   -0.8017   -1.4345 F   0  0  0  0  0  0  0  0  0  0  0  0
    2.3826   -0.7021   -2.0252 C   0  0  0  0  0  0  0  0  0  0  0  0
    1.7032    0.2076   -1.1157 N   0  0  0  0  0  0  0  0  0  0  0  0
    0.6503    1.0876   -1.5607 C   0  0  0  0  0  0  0  0  0  0  0  0
    0.3833    1.1599   -2.7910 O   0  0  0  0  0  0  0  0  0  0  0  0
   -0.1696    1.9140   -0.6060 C   0  0  0  0  0  0  0  0  0  0  0  0
   -1.5654    1.4560   -0.6080 N   0  0  0  0  0  0  0  0  0  0  0  0
   -1.7594    0.2485    0.2174 C   0  0  0  0  0  0  0  0  0  0  0  0
   -3.1123   -0.3838   -0.0679 C   0  0  0  0  0  0  0  0  0  0  0  0
   -3.4628   -1.1664    1.1887 C   0  0  0  0  0  0  0  0  0  0  0  0
   -2.6902   -0.5187    2.3368 C   0  0  0  0  0  0  0  0  0  0  0  0
   -1.7765    0.5367    1.7208 C   0  0  0  0  0  0  0  0  0  0  0  0
    1.3074   -0.0937    0.9494 H   0  0  0  0  0  0  0  0  0  0  0  0
    2.4633   -2.0509    0.6033 H   0  0  0  0  0  0  0  0  0  0  0  0
    3.9459   -1.0775    0.9230 H   0  0  0  0  0  0  0  0  0  0  0  0
    3.5221   -2.4768   -1.4390 H   0  0  0  0  0  0  0  0  0  0  0  0
    1.6559   -1.4483   -2.4141 H   0  0  0  0  0  0  0  0  0  0  0  0
    2.8324   -0.1407   -2.8728 H   0  0  0  0  0  0  0  0  0  0  0  0
   -0.1359    2.9667   -0.9623 H   0  0  0  0  0  0  0  0  0  0  0  0
    0.2473    1.9254    0.4211 H   0  0  0  0  0  0  0  0  0  0  0  0
   -2.1727    2.2314   -0.2516 H   0  0  0  0  0  0  0  0  0  0  0  0
   -0.9746   -0.5107   -0.0050 H   0  0  0  0  0  0  0  0  0  0  0  0
   -3.8809    0.4040   -0.2346 H   0  0  0  0  0  0  0  0  0  0  0  0
   -3.0692   -1.0460   -0.9599 H   0  0  0  0  0  0  0  0  0  0  0  0
   -3.1419   -2.2250    1.0700 H   0  0  0  0  0  0  0  0  0  0  0  0
   -4.5584   -1.1420    1.3767 H   0  0  0  0  0  0  0  0  0  0  0  0
   -3.3891   -0.0490    3.0633 H   0  0  0  0  0  0  0  0  0  0  0  0
   -2.0858   -1.2859    2.8691 H   0  0  0  0  0  0  0  0  0  0  0  0
   -0.7551    0.4774    2.1536 H   0  0  0  0  0  0  0  0  0  0  0  0
   -2.1947    1.5463    1.9280 H   0  0  0  0  0  0  0  0  0  0  0  0
  1  2  3  0
  2  3  1  0
  3  4  1  0
  4  5  1  0
  5  6  1  0
  5  7  1  0
  7  8  1  0
  8  9  1  0
  9 10  2  0
  9 11  1  0
 11 12  1  0
 12 13  1  0
 13 14  1  0
 14 15  1  0
 15 16  1  0
 16 17  1  0
  8  3  1  0
 17 13  1  0
  3 18  1  1
  4 19  1  0
  4 20  1  0
  5 21  1  6
  7 22  1  0
  7 23  1  0
 11 24  1  0
 11 25  1  0
 12 26  1  0
 13 27  1  0
 14 28  1  0
 14 29  1  0
 15 30  1  0
 15 31  1  0
 16 32  1  0
 16 33  1  0
 17 34  1  0
 17 35  1  0
M  END
$$$$
