
     RDKit          3D

 39 41  0  0  0  0  0  0  0  0999 V2000
   -0.7470    3.0614   -1.2022 C   0  0  0  0  0  0  0  0  0  0  0  0
   -0.6450    1.7464   -1.9688 C   0  0  0  0  0  0  0  0  0  0  0  0
   -1.6229    0.7257   -1.4322 C   0  0  0  0  0  0  0  0  0  0  0  0
   -2.9698    0.8189   -1.8181 C   0  0  0  0  0  0  0  0  0  0  0  0
   -3.9102   -0.0918   -1.3399 C   0  0  0  0  0  0  0  0  0  0  0  0
   -3.5208   -1.1118   -0.4740 C   0  0  0  0  0  0  0  0  0  0  0  0
   -2.1808   -1.2367   -0.0760 C   0  0  0  0  0  0  0  0  0  0  0  0
   -1.8021   -2.3447    0.8786 C   0  0  0  0  0  0  0  0  0  0  0  0
   -1.9739   -1.8984    2.3268 C   0  0  0  0  0  0  0  0  0  0  0  0
   -1.2270   -0.3001   -0.5385 C   0  0  0  0  0  0  0  0  0  0  0  0
    0.1387   -0.4119   -0.1166 N   0  0  0  0  0  0  0  0  0  0  0  0
    1.1924   -1.0598   -0.8266 C   0  0  0  0  0  0  0  0  0  0  0  0
    1.0196   -1.8104   -1.8232 O   0  0  0  0  0  0  0  0  0  0  0  0
    2.4778   -0.6988   -0.2428 C   0  0  0  0  0  0  0  0  0  0  0  0
    3.7666   -1.0886   -0.5996 C   0  0  0  0  0  0  0  0  0  0  0  0
    4.8424   -0.5700    0.1388 C   0  0  0  0  0  0  0  0  0  0  0  0
    4.6130    0.3216    1.2070 C   0  0  0  0  0  0  0  0  0  0  0  0
    3.3046    0.7079    1.5519 C   0  0  0  0  0  0  0  0  0  0  0  0
    3.1053    1.5930    2.6101 O   0  0  0  0  0  0  0  0  0  0  0  0
    2.2437    0.1762    0.8030 C   0  0  0  0  0  0  0  0  0  0  0  0
    0.7927    0.3708    0.8831 C   0  0  0  0  0  0  0  0  0  0  0  0
    0.1868    1.1128    1.7000 O   0  0  0  0  0  0  0  0  0  0  0  0
   -0.0132    3.7875   -1.6111 H   0  0  0  0  0  0  0  0  0  0  0  0
   -1.7659    3.4917   -1.3055 H   0  0  0  0  0  0  0  0  0  0  0  0
   -0.5267    2.9034   -0.1267 H   0  0  0  0  0  0  0  0  0  0  0  0
    0.3996    1.3765   -1.9207 H   0  0  0  0  0  0  0  0  0  0  0  0
   -0.8615    1.9381   -3.0424 H   0  0  0  0  0  0  0  0  0  0  0  0
   -3.2929    1.6035   -2.4915 H   0  0  0  0  0  0  0  0  0  0  0  0
   -4.9461   -0.0065   -1.6420 H   0  0  0  0  0  0  0  0  0  0  0  0
   -4.2672   -1.8080   -0.1115 H   0  0  0  0  0  0  0  0  0  0  0  0
   -0.7528   -2.6694    0.7143 H   0  0  0  0  0  0  0  0  0  0  0  0
   -2.4414   -3.2362    0.6974 H   0  0  0  0  0  0  0  0  0  0  0  0
   -1.3151   -1.0329    2.5467 H   0  0  0  0  0  0  0  0  0  0  0  0
   -3.0300   -1.6125    2.5195 H   0  0  0  0  0  0  0  0  0  0  0  0
   -1.7016   -2.7323    3.0073 H   0  0  0  0  0  0  0  0  0  0  0  0
    3.9354   -1.7709   -1.4225 H   0  0  0  0  0  0  0  0  0  0  0  0
    5.8550   -0.8558   -0.1148 H   0  0  0  0  0  0  0  0  0  0  0  0
    5.4542    0.7128    1.7649 H   0  0  0  0  0  0  0  0  0  0  0  0
    2.1858    1.8992    2.8979 H   0  0  0  0  0  0  0  0  0  0  0  0
  1  2  1  0
  2  3  1  0
  3  4  2  0
  4  5  1  0
  5  6  2  0
  6  7  1  0
  7  8  1  0
  8  9  1  0
  7 10  2  0
 10 11  1  0
 11 12  1  0
 12 13  2  0
 12 14  1  0
 14 15  2  0
 15 16  1  0
 16 17  2  0
 17 18  1  0
 18 19  1  0
 18 20  2  0
 20 21  1  0
 21 22  2  0
 10  3  1  0
 21 11  1  0
 20 14  1  0
  1 23  1  0
  1 24  1  0
  1 25  1  0
  2 26  1  0
  2 27  1  0
  4 28  1  0
  5 29  1  0
  6 30  1  0
  8 31  1  0
  8 32  1  0
  9 33  1  0
  9 34  1  0
  9 35  1  0
 15 36  1  0
 16 37  1  0
 17 38  1  0
 19 39  1  0
M  END
$$$$
