
     RDKit          3D

 49 51  0  0  0  0  0  0  0  0999 V2000
    5.3458   -0.0946   -5.9623 C   0  0  0  0  0  0  0  0  0  0  0  0
    5.1336    0.0472   -4.5615 O   0  0  0  0  0  0  0  0  0  0  0  0
    3.8743    0.1963   -3.9589 C   0  0  0  0  0  0  0  0  0  0  0  0
    2.6853    0.2194   -4.7098 C   0  0  0  0  0  0  0  0  0  0  0  0
    1.4515    0.3672   -4.0751 C   0  0  0  0  0  0  0  0  0  0  0  0
    1.3738    0.4927   -2.6814 C   0  0  0  0  0  0  0  0  0  0  0  0
    0.0797    0.6416   -2.0622 N   0  0  0  0  0  0  0  0  0  0  0  0
   -0.1447    0.6330   -0.6090 C   0  0  2  0  0  0  0  0  0  0  0  0
    0.1219   -0.7474    0.0038 C   0  0  0  0  0  0  0  0  0  0  0  0
   -0.9764   -1.0702    0.9225 N   0  0  0  0  0  0  0  0  0  0  0  0
   -1.7805    0.1481    1.0443 C   0  0  2  0  0  0  0  0  0  0  0  0
   -3.2311   -0.1682    1.3602 C   0  0  0  0  0  0  0  0  0  0  0  0
   -4.0235   -0.4319    0.4141 O   0  0  0  0  0  0  0  0  0  0  0  0
   -3.7099   -0.2565    2.7187 N   0  0  0  0  0  0  0  0  0  0  0  0
   -5.0938   -0.5802    3.0289 C   0  0  0  0  0  0  0  0  0  0  0  0
   -5.1684   -0.6805    4.5463 C   0  0  0  0  0  0  0  0  0  0  0  0
   -3.9226    0.0279    5.0682 C   0  0  0  0  0  0  0  0  0  0  0  0
   -2.9183    0.0043    3.9152 C   0  0  1  0  0  0  0  0  0  0  0  0
   -1.9225   -1.0634    4.1060 C   0  0  0  0  0  0  0  0  0  0  0  0
   -1.1397   -1.9025    4.2551 N   0  0  0  0  0  0  0  0  0  0  0  0
   -1.5912    0.9263   -0.2496 C   0  0  0  0  0  0  0  0  0  0  0  0
    2.5640    0.4771   -1.9298 C   0  0  0  0  0  0  0  0  0  0  0  0
    3.8136    0.3261   -2.5635 C   0  0  0  0  0  0  0  0  0  0  0  0
    5.0175    0.3008   -1.8408 O   0  0  0  0  0  0  0  0  0  0  0  0
    5.1130    0.4132   -0.4244 C   0  0  0  0  0  0  0  0  0  0  0  0
    4.8332   -1.0061   -6.3359 H   0  0  0  0  0  0  0  0  0  0  0  0
    4.9704    0.8027   -6.4982 H   0  0  0  0  0  0  0  0  0  0  0  0
    6.4334   -0.1944   -6.1558 H   0  0  0  0  0  0  0  0  0  0  0  0
    2.7032    0.1227   -5.7867 H   0  0  0  0  0  0  0  0  0  0  0  0
    0.5496    0.3796   -4.6743 H   0  0  0  0  0  0  0  0  0  0  0  0
   -0.7422    0.7739   -2.6953 H   0  0  0  0  0  0  0  0  0  0  0  0
    0.4967    1.4011   -0.1215 H   0  0  0  0  0  0  0  0  0  0  0  0
    1.0754   -0.7341    0.5733 H   0  0  0  0  0  0  0  0  0  0  0  0
    0.2066   -1.5276   -0.7875 H   0  0  0  0  0  0  0  0  0  0  0  0
   -1.5544   -1.8213    0.4739 H   0  0  0  0  0  0  0  0  0  0  0  0
   -1.3492    0.7656    1.8601 H   0  0  0  0  0  0  0  0  0  0  0  0
   -5.3814   -1.5466    2.5605 H   0  0  0  0  0  0  0  0  0  0  0  0
   -5.7578    0.2315    2.6600 H   0  0  0  0  0  0  0  0  0  0  0  0
   -5.1396   -1.7498    4.8514 H   0  0  0  0  0  0  0  0  0  0  0  0
   -6.0967   -0.2123    4.9398 H   0  0  0  0  0  0  0  0  0  0  0  0
   -4.1814    1.0837    5.3052 H   0  0  0  0  0  0  0  0  0  0  0  0
   -3.5406   -0.4546    5.9958 H   0  0  0  0  0  0  0  0  0  0  0  0
   -2.4103    0.9897    3.8466 H   0  0  0  0  0  0  0  0  0  0  0  0
   -1.7658    2.0147   -0.1035 H   0  0  0  0  0  0  0  0  0  0  0  0
   -2.2722    0.5412   -1.0400 H   0  0  0  0  0  0  0  0  0  0  0  0
    2.5245    0.5885   -0.8584 H   0  0  0  0  0  0  0  0  0  0  0  0
    6.1802    0.3555   -0.1276 H   0  0  0  0  0  0  0  0  0  0  0  0
    4.7039    1.3901   -0.0902 H   0  0  0  0  0  0  0  0  0  0  0  0
    4.5631   -0.4195    0.0630 H   0  0  0  0  0  0  0  0  0  0  0  0
  1  2  1  0
  2  3  1  0
  3  4  2  0
  4  5  1  0
  5  6  2  0
  6  7  1  0
  7  8  1  0
  8  9  1  0
  9 10  1  0
 10 11  1  0
 11 12  1  0
 12 13  2  0
 12 14  1  0
 14 15  1  0
 15 16  1  0
 16 17  1  0
 17 18  1  0
 18 19  1  0
 19 20  3  0
 11 21  1  0
  6 22  1  0
 22 23  2  0
 23 24  1  0
 24 25  1  0
 23  3  1  0
 21  8  1  0
 18 14  1  0
  1 26  1  0
  1 27  1  0
  1 28  1  0
  4 29  1  0
  5 30  1  0
  7 31  1  0
  8 32  1  1
  9 33  1  0
  9 34  1  0
 10 35  1  0
 11 36  1  1
 15 37  1  0
 15 38  1  0
 16 39  1  0
 16 40  1  0
 17 41  1  0
 17 42  1  0
 18 43  1  6
 21 44  1  0
 21 45  1  0
 22 46  1  0
 25 47  1  0
 25 48  1  0
 25 49  1  0
M  END
$$$$
