
     RDKit          3D

 48 51  0  0  0  0  0  0  0  0999 V2000
    2.1210    4.3464    1.8039 C   0  0  0  0  0  0  0  0  0  0  0  0
    1.2658    3.2634    1.3021 N   0  0  0  0  0  0  0  0  0  0  0  0
    0.2803    3.5127    0.4055 C   0  0  0  0  0  0  0  0  0  0  0  0
   -0.0806    4.6910   -0.1229 N   0  0  0  0  0  0  0  0  0  0  0  0
   -1.0999    4.3465   -0.9593 C   0  0  0  0  0  0  0  0  0  0  0  0
   -1.3980    3.0170   -0.9908 N   0  0  0  0  0  0  0  0  0  0  0  0
   -0.5206    2.4942   -0.1243 C   0  0  0  0  0  0  0  0  0  0  0  0
   -0.3183    1.1829    0.2580 C   0  0  0  0  0  0  0  0  0  0  0  0
   -1.1322    0.1395   -0.3002 N   0  0  0  0  0  0  0  0  0  0  0  0
   -0.8631   -0.3060   -1.6728 C   0  0  0  0  0  0  0  0  0  0  0  0
   -1.1920   -1.7990   -1.8617 C   0  0  0  0  0  0  0  0  0  0  0  0
   -2.2997   -2.3177   -0.9246 C   0  0  0  0  0  0  0  0  0  0  0  0
   -3.2326   -1.1912   -0.4622 C   0  0  1  0  0  0  0  0  0  0  0  0
   -4.3293   -1.7392    0.3386 N   0  0  0  0  0  0  0  0  0  0  0  0
   -2.4282   -0.1430    0.3339 C   0  0  0  0  0  0  0  0  0  0  0  0
    0.6919    0.9196    1.1630 N   0  0  0  0  0  0  0  0  0  0  0  0
    0.9546   -0.4778    1.5718 C   0  0  0  0  0  0  0  0  0  0  0  0
    1.7158   -1.2600    0.5147 C   0  0  0  0  0  0  0  0  0  0  0  0
    2.6161   -0.6043   -0.3503 C   0  0  0  0  0  0  0  0  0  0  0  0
    3.3344   -1.3219   -1.3089 C   0  0  0  0  0  0  0  0  0  0  0  0
    3.1883   -2.7049   -1.4038 C   0  0  0  0  0  0  0  0  0  0  0  0
    2.3324   -3.3782   -0.5318 C   0  0  0  0  0  0  0  0  0  0  0  0
    1.6033   -2.6704    0.4339 C   0  0  0  0  0  0  0  0  0  0  0  0
    0.7499   -3.4153    1.3288 C   0  0  0  0  0  0  0  0  0  0  0  0
    0.0652   -4.0123    2.0458 N   0  0  0  0  0  0  0  0  0  0  0  0
    1.4835    1.9499    1.6654 C   0  0  0  0  0  0  0  0  0  0  0  0
    2.4293    1.6824    2.4595 O   0  0  0  0  0  0  0  0  0  0  0  0
    1.6242    5.3350    1.7036 H   0  0  0  0  0  0  0  0  0  0  0  0
    3.0737    4.3621    1.2339 H   0  0  0  0  0  0  0  0  0  0  0  0
    2.3419    4.1991    2.8827 H   0  0  0  0  0  0  0  0  0  0  0  0
   -1.6315    5.0746   -1.5570 H   0  0  0  0  0  0  0  0  0  0  0  0
    0.2022   -0.1310   -1.9390 H   0  0  0  0  0  0  0  0  0  0  0  0
   -1.4838    0.2984   -2.3697 H   0  0  0  0  0  0  0  0  0  0  0  0
   -0.2747   -2.4035   -1.7006 H   0  0  0  0  0  0  0  0  0  0  0  0
   -1.5009   -1.9593   -2.9177 H   0  0  0  0  0  0  0  0  0  0  0  0
   -1.8319   -2.7918   -0.0336 H   0  0  0  0  0  0  0  0  0  0  0  0
   -2.8879   -3.1015   -1.4500 H   0  0  0  0  0  0  0  0  0  0  0  0
   -3.6686   -0.7038   -1.3634 H   0  0  0  0  0  0  0  0  0  0  0  0
   -3.9453   -2.1600    1.2164 H   0  0  0  0  0  0  0  0  0  0  0  0
   -4.9613   -0.9541    0.6190 H   0  0  0  0  0  0  0  0  0  0  0  0
   -2.2507   -0.5134    1.3658 H   0  0  0  0  0  0  0  0  0  0  0  0
   -3.0214    0.7946    0.4064 H   0  0  0  0  0  0  0  0  0  0  0  0
   -0.0113   -0.9724    1.7989 H   0  0  0  0  0  0  0  0  0  0  0  0
    1.5274   -0.5259    2.5220 H   0  0  0  0  0  0  0  0  0  0  0  0
    2.7632    0.4655   -0.2966 H   0  0  0  0  0  0  0  0  0  0  0  0
    4.0102   -0.8038   -1.9770 H   0  0  0  0  0  0  0  0  0  0  0  0
    3.7478   -3.2579   -2.1472 H   0  0  0  0  0  0  0  0  0  0  0  0
    2.2413   -4.4553   -0.6081 H   0  0  0  0  0  0  0  0  0  0  0  0
  1  2  1  0
  2  3  1  0
  3  4  2  0
  4  5  1  0
  5  6  2  0
  6  7  1  0
  7  8  2  0
  8  9  1  0
  9 10  1  0
 10 11  1  0
 11 12  1  0
 12 13  1  0
 13 14  1  0
 13 15  1  0
  8 16  1  0
 16 17  1  0
 17 18  1  0
 18 19  2  0
 19 20  1  0
 20 21  2  0
 21 22  1  0
 22 23  2  0
 23 24  1  0
 24 25  3  0
 16 26  1  0
 26 27  2  0
 26  2  1  0
  7  3  1  0
 15  9  1  0
 23 18  1  0
  1 28  1  0
  1 29  1  0
  1 30  1  0
  5 31  1  0
 10 32  1  0
 10 33  1  0
 11 34  1  0
 11 35  1  0
 12 36  1  0
 12 37  1  0
 13 38  1  6
 14 39  1  0
 14 40  1  0
 15 41  1  0
 15 42  1  0
 17 43  1  0
 17 44  1  0
 19 45  1  0
 20 46  1  0
 21 47  1  0
 22 48  1  0
M  END
$$$$
