
     RDKit          3D

 42 44  0  0  0  0  0  0  0  0999 V2000
    1.1175   -0.2918   -2.6026 N   0  0  0  0  0  0  0  0  0  0  0  0
    1.9117   -0.4199   -1.7712 C   0  0  0  0  0  0  0  0  0  0  0  0
    2.9122   -0.5785   -0.7449 C   0  0  0  0  0  0  0  0  0  0  0  0
    4.2380   -0.8103   -1.1385 C   0  0  0  0  0  0  0  0  0  0  0  0
    5.2407   -0.9747   -0.1813 C   0  0  0  0  0  0  0  0  0  0  0  0
    4.9276   -0.9117    1.1762 C   0  0  0  0  0  0  0  0  0  0  0  0
    3.6112   -0.6813    1.5817 C   0  0  0  0  0  0  0  0  0  0  0  0
    2.5883   -0.5037    0.6312 C   0  0  0  0  0  0  0  0  0  0  0  0
    1.1693   -0.2610    1.1133 C   0  0  0  0  0  0  0  0  0  0  0  0
    0.6184    1.0327    0.6433 N   0  0  0  0  0  0  0  0  0  0  0  0
   -0.6429    1.0990    0.0905 C   0  0  0  0  0  0  0  0  0  0  0  0
   -1.5143   -0.0415    0.0663 N   0  0  0  0  0  0  0  0  0  0  0  0
   -2.1687   -0.4672    1.3109 C   0  0  0  0  0  0  0  0  0  0  0  0
   -2.9814   -1.7465    1.0954 C   0  0  0  0  0  0  0  0  0  0  0  0
   -3.9889   -1.5846   -0.0542 C   0  0  0  0  0  0  0  0  0  0  0  0
   -3.4167   -0.8498   -1.2977 C   0  0  1  0  0  0  0  0  0  0  0  0
   -4.1056    0.4311   -1.4856 N   0  0  0  0  0  0  0  0  0  0  0  0
   -1.8887   -0.6448   -1.2181 C   0  0  0  0  0  0  0  0  0  0  0  0
   -1.1107    2.2747   -0.4051 N   0  0  0  0  0  0  0  0  0  0  0  0
   -0.3846    3.4136   -0.3347 C   0  0  0  0  0  0  0  0  0  0  0  0
    0.8515    3.4052    0.2962 C   0  0  0  0  0  0  0  0  0  0  0  0
    1.9480    5.2062    0.4718 I   0  0  0  0  0  0  0  0  0  0  0  0
    1.3360    2.1968    0.8059 C   0  0  0  0  0  0  0  0  0  0  0  0
    2.4377    2.1939    1.4203 O   0  0  0  0  0  0  0  0  0  0  0  0
    4.4971   -0.8654   -2.1893 H   0  0  0  0  0  0  0  0  0  0  0  0
    6.2618   -1.1535   -0.4928 H   0  0  0  0  0  0  0  0  0  0  0  0
    5.7063   -1.0420    1.9166 H   0  0  0  0  0  0  0  0  0  0  0  0
    3.3921   -0.6360    2.6413 H   0  0  0  0  0  0  0  0  0  0  0  0
    0.5690   -1.1209    0.7502 H   0  0  0  0  0  0  0  0  0  0  0  0
    1.1161   -0.2849    2.2235 H   0  0  0  0  0  0  0  0  0  0  0  0
   -1.4106   -0.6558    2.0991 H   0  0  0  0  0  0  0  0  0  0  0  0
   -2.8405    0.3434    1.6680 H   0  0  0  0  0  0  0  0  0  0  0  0
   -3.5216   -2.0073    2.0310 H   0  0  0  0  0  0  0  0  0  0  0  0
   -2.2861   -2.5827    0.8623 H   0  0  0  0  0  0  0  0  0  0  0  0
   -4.8829   -1.0465    0.3321 H   0  0  0  0  0  0  0  0  0  0  0  0
   -4.3380   -2.5971   -0.3536 H   0  0  0  0  0  0  0  0  0  0  0  0
   -3.6234   -1.4784   -2.1928 H   0  0  0  0  0  0  0  0  0  0  0  0
   -3.8476    1.0844   -0.7105 H   0  0  0  0  0  0  0  0  0  0  0  0
   -3.7808    0.8630   -2.3814 H   0  0  0  0  0  0  0  0  0  0  0  0
   -1.3779   -1.6270   -1.3160 H   0  0  0  0  0  0  0  0  0  0  0  0
   -1.5526   -0.0105   -2.0672 H   0  0  0  0  0  0  0  0  0  0  0  0
   -0.7863    4.3318   -0.7416 H   0  0  0  0  0  0  0  0  0  0  0  0
  1  2  3  0
  2  3  1  0
  3  4  2  0
  4  5  1  0
  5  6  2  0
  6  7  1  0
  7  8  2  0
  8  9  1  0
  9 10  1  0
 10 11  1  0
 11 12  1  0
 12 13  1  0
 13 14  1  0
 14 15  1  0
 15 16  1  0
 16 17  1  0
 16 18  1  0
 11 19  2  0
 19 20  1  0
 20 21  2  0
 21 22  1  0
 21 23  1  0
 23 24  2  0
  8  3  1  0
 23 10  1  0
 18 12  1  0
  4 25  1  0
  5 26  1  0
  6 27  1  0
  7 28  1  0
  9 29  1  0
  9 30  1  0
 13 31  1  0
 13 32  1  0
 14 33  1  0
 14 34  1  0
 15 35  1  0
 15 36  1  0
 16 37  1  6
 17 38  1  0
 17 39  1  0
 18 40  1  0
 18 41  1  0
 20 42  1  0
M  END
$$$$
