
     RDKit          3D

 53 55  0  0  0  0  0  0  0  0999 V2000
    7.1022   -0.1825   -0.2163 C   0  0  0  0  0  0  0  0  0  0  0  0
    6.7121   -1.3610    1.0601 S   0  0  0  0  0  0  0  0  0  0  0  0
    6.5413   -2.7345    0.4745 O   0  0  0  0  0  0  0  0  0  0  0  0
    7.8495   -1.3945    2.0415 O   0  0  0  0  0  0  0  0  0  0  0  0
    5.2665   -0.8846    1.8950 N   0  0  0  0  0  0  0  0  0  0  0  0
    3.9658   -0.7877    1.2865 C   0  0  0  0  0  0  0  0  0  0  0  0
    3.7127   -1.2622   -0.0322 C   0  0  0  0  0  0  0  0  0  0  0  0
    2.4310   -1.1564   -0.6026 C   0  0  0  0  0  0  0  0  0  0  0  0
    1.4253   -0.5818    0.1699 C   0  0  0  0  0  0  0  0  0  0  0  0
    1.6547   -0.1216    1.4331 C   0  0  0  0  0  0  0  0  0  0  0  0
    2.9095   -0.2099    2.0283 C   0  0  0  0  0  0  0  0  0  0  0  0
    0.5331    0.4115    1.9578 N   0  0  0  0  0  0  0  0  0  0  0  0
   -0.3666    0.2587    0.9511 C   0  0  0  0  0  0  0  0  0  0  0  0
    0.1389   -0.3667   -0.1385 N   0  0  0  0  0  0  0  0  0  0  0  0
   -0.5504   -0.5831   -1.4104 C   0  0  0  0  0  0  0  0  0  0  0  0
   -2.0785   -0.4959   -1.2223 C   0  0  2  0  0  0  0  0  0  0  0  0
   -2.7212   -0.4501   -2.5393 N   0  0  0  0  0  0  0  0  0  0  0  0
   -2.4487    0.7427   -0.3490 C   0  0  1  0  0  0  0  0  0  0  0  0
   -3.9512    0.9659   -0.2402 C   0  0  0  0  0  0  0  0  0  0  0  0
   -4.5011    2.1809   -0.6924 C   0  0  0  0  0  0  0  0  0  0  0  0
   -5.8763    2.4166   -0.6082 C   0  0  0  0  0  0  0  0  0  0  0  0
   -6.3885    3.5919   -1.0503 F   0  0  0  0  0  0  0  0  0  0  0  0
   -6.7215    1.4440   -0.0701 C   0  0  0  0  0  0  0  0  0  0  0  0
   -8.0558    1.6717    0.0118 F   0  0  0  0  0  0  0  0  0  0  0  0
   -6.1921    0.2351    0.3851 C   0  0  0  0  0  0  0  0  0  0  0  0
   -4.8173   -0.0093    0.3048 C   0  0  0  0  0  0  0  0  0  0  0  0
   -4.3437   -1.1965    0.7584 F   0  0  0  0  0  0  0  0  0  0  0  0
   -1.8067    0.6551    1.0544 C   0  0  0  0  0  0  0  0  0  0  0  0
    0.8753    0.7789   -1.2592 O   0  0  0  0  0  0  0  0  0  0  0  0
    0.4844    0.0803   -0.2860 C   0  0  0  0  0  0  0  0  0  0  0  0
    1.3990   -0.6896    0.4265 O   0  0  0  0  0  0  0  0  0  0  0  0
   -0.9476    0.1246    0.1389 C   0  0  0  0  0  0  0  0  0  0  0  0
   -1.2678   -1.0221    0.8425 F   0  0  0  0  0  0  0  0  0  0  0  0
   -1.7676    0.2151   -0.9713 F   0  0  0  0  0  0  0  0  0  0  0  0
   -1.1519    1.2264    0.9478 F   0  0  0  0  0  0  0  0  0  0  0  0
    7.2128    0.8254    0.2338 H   0  0  0  0  0  0  0  0  0  0  0  0
    8.0538   -0.4712   -0.7083 H   0  0  0  0  0  0  0  0  0  0  0  0
    6.2935   -0.1565   -0.9738 H   0  0  0  0  0  0  0  0  0  0  0  0
    5.3773   -0.5948    2.8926 H   0  0  0  0  0  0  0  0  0  0  0  0
    4.4917   -1.7183   -0.6230 H   0  0  0  0  0  0  0  0  0  0  0  0
    2.2378   -1.5144   -1.6053 H   0  0  0  0  0  0  0  0  0  0  0  0
    3.0670    0.1639    3.0322 H   0  0  0  0  0  0  0  0  0  0  0  0
   -0.2853   -1.5833   -1.8164 H   0  0  0  0  0  0  0  0  0  0  0  0
   -0.2126    0.1910   -2.1336 H   0  0  0  0  0  0  0  0  0  0  0  0
   -2.3990   -1.4253   -0.7034 H   0  0  0  0  0  0  0  0  0  0  0  0
   -3.7469   -0.6187   -2.4260 H   0  0  0  0  0  0  0  0  0  0  0  0
   -2.6001    0.5024   -2.9550 H   0  0  0  0  0  0  0  0  0  0  0  0
   -1.9932    1.6303   -0.8463 H   0  0  0  0  0  0  0  0  0  0  0  0
   -3.8653    2.9497   -1.1137 H   0  0  0  0  0  0  0  0  0  0  0  0
   -6.8497   -0.5168    0.8025 H   0  0  0  0  0  0  0  0  0  0  0  0
   -2.3223   -0.1004    1.6821 H   0  0  0  0  0  0  0  0  0  0  0  0
   -1.8825    1.6410    1.5619 H   0  0  0  0  0  0  0  0  0  0  0  0
    2.3763   -0.7136    0.1608 H   0  0  0  0  0  0  0  0  0  0  0  0
  1  2  1  0
  2  3  2  0
  2  4  2  0
  2  5  1  0
  5  6  1  0
  6  7  2  0
  7  8  1  0
  8  9  2  0
  9 10  1  0
 10 11  2  0
 10 12  1  0
 12 13  2  0
 13 14  1  0
 14 15  1  0
 15 16  1  0
 16 17  1  0
 16 18  1  0
 18 19  1  0
 19 20  2  0
 20 21  1  0
 21 22  1  0
 21 23  2  0
 23 24  1  0
 23 25  1  0
 25 26  2  0
 26 27  1  0
 18 28  1  0
 29 30  2  0
 30 31  1  0
 30 32  1  0
 32 33  1  0
 32 34  1  0
 32 35  1  0
 11  6  1  0
 28 13  1  0
 14  9  1  0
 26 19  1  0
  1 36  1  0
  1 37  1  0
  1 38  1  0
  5 39  1  0
  7 40  1  0
  8 41  1  0
 11 42  1  0
 15 43  1  0
 15 44  1  0
 16 45  1  1
 17 46  1  0
 17 47  1  0
 18 48  1  6
 20 49  1  0
 25 50  1  0
 28 51  1  0
 28 52  1  0
 31 53  1  0
M  END
$$$$
