
     RDKit          3D

 61 66  0  0  0  0  0  0  0  0999 V2000
    4.6166   -2.5820    1.9653 C   0  0  0  0  0  0  0  0  0  0  0  0
    4.5947   -1.2290    1.3158 C   0  0  0  0  0  0  0  0  0  0  0  0
    3.7732   -0.2763    1.8323 N   0  0  0  0  0  0  0  0  0  0  0  0
    3.7017    0.9718    1.3007 C   0  0  0  0  0  0  0  0  0  0  0  0
    2.7434    1.9709    1.8659 C   0  0  0  0  0  0  0  0  0  0  0  0
    1.4423    1.8416    1.2019 N   0  0  0  0  0  0  0  0  0  0  0  0
    0.4561    0.8831    1.6694 C   0  0  0  0  0  0  0  0  0  0  0  0
    0.6473    0.2237    2.7260 O   0  0  0  0  0  0  0  0  0  0  0  0
   -0.7801    0.7023    0.8749 C   0  0  0  0  0  0  0  0  0  0  0  0
   -0.9998    1.4241   -0.2542 C   0  0  0  0  0  0  0  0  0  0  0  0
   -2.1501    1.0734   -0.8527 N   0  0  0  0  0  0  0  0  0  0  0  0
   -2.6250    0.1099   -0.0205 C   0  0  0  0  0  0  0  0  0  0  0  0
   -3.8708   -0.5629   -0.2657 N   0  0  0  0  0  0  0  0  0  0  0  0
   -4.8901   -0.6535    0.7883 C   0  0  0  0  0  0  0  0  0  0  0  0
   -6.2589   -0.2632    0.2235 C   0  0  0  0  0  0  0  0  0  0  0  0
   -6.6517   -1.0879   -1.0223 C   0  0  0  0  0  0  0  0  0  0  0  0
   -5.4696   -1.8415   -1.6693 C   0  0  1  0  0  0  0  0  0  0  0  0
   -5.8099   -2.2334   -3.0386 N   0  0  0  0  0  0  0  0  0  0  0  0
   -4.1789   -0.9999   -1.6338 C   0  0  0  0  0  0  0  0  0  0  0  0
   -1.8045   -0.1565    1.0357 N   0  0  0  0  0  0  0  0  0  0  0  0
   -1.9400   -1.2044    2.0494 C   0  0  0  0  0  0  0  0  0  0  0  0
   -2.4362   -0.6316    3.3043 C   0  0  0  0  0  0  0  0  0  0  0  0
   -2.8280   -0.1786    4.2944 N   0  0  0  0  0  0  0  0  0  0  0  0
   -0.0582    2.3866   -0.7107 N   0  0  0  0  0  0  0  0  0  0  0  0
    0.0134    3.1015   -1.9646 C   0  0  0  0  0  0  0  0  0  0  0  0
    1.3977    3.7839   -1.8877 C   0  0  0  0  0  0  0  0  0  0  0  0
    2.0052    3.3094   -0.6412 N   0  0  0  0  0  0  0  0  0  0  0  0
    1.1621    2.5548   -0.0268 C   0  0  0  0  0  0  0  0  0  0  0  0
    4.4460    1.2877    0.2102 N   0  0  0  0  0  0  0  0  0  0  0  0
    5.2852    0.3819   -0.3531 C   0  0  0  0  0  0  0  0  0  0  0  0
    6.0432    0.7392   -1.4739 C   0  0  0  0  0  0  0  0  0  0  0  0
    6.9073   -0.1889   -2.0598 C   0  0  0  0  0  0  0  0  0  0  0  0
    7.0173   -1.4769   -1.5299 C   0  0  0  0  0  0  0  0  0  0  0  0
    6.2635   -1.8461   -0.4114 C   0  0  0  0  0  0  0  0  0  0  0  0
    5.3879   -0.9195    0.1893 C   0  0  0  0  0  0  0  0  0  0  0  0
    3.9197   -2.6110    2.8300 H   0  0  0  0  0  0  0  0  0  0  0  0
    5.6392   -2.8087    2.3335 H   0  0  0  0  0  0  0  0  0  0  0  0
    4.3001   -3.3570    1.2360 H   0  0  0  0  0  0  0  0  0  0  0  0
    3.1458    2.9983    1.7306 H   0  0  0  0  0  0  0  0  0  0  0  0
    2.6368    1.8149    2.9612 H   0  0  0  0  0  0  0  0  0  0  0  0
   -4.9327   -1.6920    1.1808 H   0  0  0  0  0  0  0  0  0  0  0  0
   -4.6468    0.0316    1.6291 H   0  0  0  0  0  0  0  0  0  0  0  0
   -7.0321   -0.3835    1.0130 H   0  0  0  0  0  0  0  0  0  0  0  0
   -6.2275    0.8147   -0.0497 H   0  0  0  0  0  0  0  0  0  0  0  0
   -7.4299   -1.8305   -0.7401 H   0  0  0  0  0  0  0  0  0  0  0  0
   -7.1131   -0.4009   -1.7659 H   0  0  0  0  0  0  0  0  0  0  0  0
   -5.2896   -2.7684   -1.0786 H   0  0  0  0  0  0  0  0  0  0  0  0
   -5.0385   -2.8308   -3.4160 H   0  0  0  0  0  0  0  0  0  0  0  0
   -5.8634   -1.3796   -3.6412 H   0  0  0  0  0  0  0  0  0  0  0  0
   -4.2909   -0.1065   -2.2864 H   0  0  0  0  0  0  0  0  0  0  0  0
   -3.3365   -1.6146   -2.0196 H   0  0  0  0  0  0  0  0  0  0  0  0
   -2.6332   -1.9972    1.7037 H   0  0  0  0  0  0  0  0  0  0  0  0
   -0.9595   -1.6920    2.2283 H   0  0  0  0  0  0  0  0  0  0  0  0
   -0.0317    2.3872   -2.8149 H   0  0  0  0  0  0  0  0  0  0  0  0
   -0.8065    3.8482   -2.0298 H   0  0  0  0  0  0  0  0  0  0  0  0
    1.2889    4.8890   -1.8528 H   0  0  0  0  0  0  0  0  0  0  0  0
    2.0330    3.4932   -2.7514 H   0  0  0  0  0  0  0  0  0  0  0  0
    5.9638    1.7352   -1.8920 H   0  0  0  0  0  0  0  0  0  0  0  0
    7.4927    0.0903   -2.9263 H   0  0  0  0  0  0  0  0  0  0  0  0
    7.6883   -2.1921   -1.9880 H   0  0  0  0  0  0  0  0  0  0  0  0
    6.3711   -2.8516   -0.0270 H   0  0  0  0  0  0  0  0  0  0  0  0
  1  2  1  0
  2  3  2  0
  3  4  1  0
  4  5  1  0
  5  6  1  0
  6  7  1  0
  7  8  2  0
  7  9  1  0
  9 10  2  0
 10 11  1  0
 11 12  2  0
 12 13  1  0
 13 14  1  0
 14 15  1  0
 15 16  1  0
 16 17  1  0
 17 18  1  0
 17 19  1  0
 12 20  1  0
 20 21  1  0
 21 22  1  0
 22 23  3  0
 10 24  1  0
 24 25  1  0
 25 26  1  0
 26 27  1  0
 27 28  2  0
  4 29  2  0
 29 30  1  0
 30 31  2  0
 31 32  1  0
 32 33  2  0
 33 34  1  0
 34 35  2  0
 35  2  1  0
 28  6  1  0
 35 30  1  0
 20  9  1  0
 28 24  1  0
 19 13  1  0
  1 36  1  0
  1 37  1  0
  1 38  1  0
  5 39  1  0
  5 40  1  0
 14 41  1  0
 14 42  1  0
 15 43  1  0
 15 44  1  0
 16 45  1  0
 16 46  1  0
 17 47  1  1
 18 48  1  0
 18 49  1  0
 19 50  1  0
 19 51  1  0
 21 52  1  0
 21 53  1  0
 25 54  1  0
 25 55  1  0
 26 56  1  0
 26 57  1  0
 31 58  1  0
 32 59  1  0
 33 60  1  0
 34 61  1  0
M  END
$$$$
