
     RDKit          3D

 51 52  0  0  0  0  0  0  0  0999 V2000
   -2.4274   -2.6009    0.6072 N   0  0  0  0  0  0  0  0  0  0  0  0
   -1.6168   -1.4751    1.0826 C   0  0  1  0  0  0  0  0  0  0  0  0
   -0.4749   -2.0058    1.9772 C   0  0  0  0  0  0  0  0  0  0  0  0
    0.1852   -0.8924    2.7495 C   0  0  0  0  0  0  0  0  0  0  0  0
   -0.3884   -0.4432    3.7785 O   0  0  0  0  0  0  0  0  0  0  0  0
    1.3864   -0.2586    2.2770 N   0  0  0  0  0  0  0  0  0  0  0  0
    2.5386   -1.0361    1.7934 C   0  0  0  0  0  0  0  0  0  0  0  0
    2.8473   -0.6504    0.3397 C   0  0  0  0  0  0  0  0  0  0  0  0
    2.7829    0.8046    0.1903 N   0  0  0  0  0  0  0  0  0  0  0  0
    2.1405    1.6520    1.0096 C   0  0  0  0  0  0  0  0  0  0  0  0
    2.1820    2.9171    0.5519 N   0  0  0  0  0  0  0  0  0  0  0  0
    2.8428    2.8808   -0.5989 N   0  0  0  0  0  0  0  0  0  0  0  0
    3.1938    1.5955   -0.8185 C   0  0  0  0  0  0  0  0  0  0  0  0
    3.9387    1.1248   -2.0298 C   0  0  0  0  0  0  0  0  0  0  0  0
    4.1348    2.1755   -2.9079 F   0  0  0  0  0  0  0  0  0  0  0  0
    5.1679    0.6196   -1.6500 F   0  0  0  0  0  0  0  0  0  0  0  0
    3.2134    0.1356   -2.6673 F   0  0  0  0  0  0  0  0  0  0  0  0
    1.4868    1.2080    2.2801 C   0  0  0  0  0  0  0  0  0  0  0  0
   -1.0479   -0.6899   -0.1225 C   0  0  0  0  0  0  0  0  0  0  0  0
   -2.1260    0.0493   -0.8757 C   0  0  0  0  0  0  0  0  0  0  0  0
   -2.6186    1.2643   -0.3697 C   0  0  0  0  0  0  0  0  0  0  0  0
   -3.6280    1.9551   -1.0470 C   0  0  0  0  0  0  0  0  0  0  0  0
   -4.0942    3.1278   -0.5508 F   0  0  0  0  0  0  0  0  0  0  0  0
   -4.1567    1.4363   -2.2327 C   0  0  0  0  0  0  0  0  0  0  0  0
   -5.1365    2.1046   -2.8901 F   0  0  0  0  0  0  0  0  0  0  0  0
   -3.6772    0.2257   -2.7406 C   0  0  0  0  0  0  0  0  0  0  0  0
   -2.6671   -0.4696   -2.0676 C   0  0  0  0  0  0  0  0  0  0  0  0
   -2.2237   -1.6475   -2.5756 F   0  0  0  0  0  0  0  0  0  0  0  0
   -0.2853   -0.3558    1.9036 O   0  0  0  0  0  0  0  0  0  0  0  0
    0.0228   -0.1248    0.4420 P   0  0  0  0  0  0  0  0  0  0  0  0
   -1.1719   -0.8551   -0.5085 O   0  0  0  0  0  0  0  0  0  0  0  0
    0.0586    1.5384    0.1324 O   0  0  0  0  0  0  0  0  0  0  0  0
    1.5287   -0.8023    0.0741 O   0  0  0  0  0  0  0  0  0  0  0  0
   -2.8079   -3.1121    1.4367 H   0  0  0  0  0  0  0  0  0  0  0  0
   -3.2671   -2.2227    0.1125 H   0  0  0  0  0  0  0  0  0  0  0  0
   -2.2612   -0.8002    1.6931 H   0  0  0  0  0  0  0  0  0  0  0  0
   -0.8830   -2.7314    2.7139 H   0  0  0  0  0  0  0  0  0  0  0  0
    0.2539   -2.5598    1.3516 H   0  0  0  0  0  0  0  0  0  0  0  0
    3.4212   -0.7964    2.4255 H   0  0  0  0  0  0  0  0  0  0  0  0
    2.3693   -2.1293    1.8762 H   0  0  0  0  0  0  0  0  0  0  0  0
    3.8578   -1.0192    0.0631 H   0  0  0  0  0  0  0  0  0  0  0  0
    2.0975   -1.1187   -0.3328 H   0  0  0  0  0  0  0  0  0  0  0  0
    0.4787    1.6724    2.3470 H   0  0  0  0  0  0  0  0  0  0  0  0
    2.0987    1.5367    3.1462 H   0  0  0  0  0  0  0  0  0  0  0  0
   -0.5003   -1.3834   -0.7972 H   0  0  0  0  0  0  0  0  0  0  0  0
   -0.3060    0.0584    0.2236 H   0  0  0  0  0  0  0  0  0  0  0  0
   -2.2188    1.6745    0.5499 H   0  0  0  0  0  0  0  0  0  0  0  0
   -4.0904   -0.1759   -3.6569 H   0  0  0  0  0  0  0  0  0  0  0  0
   -2.0010   -0.3547   -0.3006 H   0  0  0  0  0  0  0  0  0  0  0  0
    0.2081    1.6097   -0.8440 H   0  0  0  0  0  0  0  0  0  0  0  0
    1.6400   -0.6554   -0.8990 H   0  0  0  0  0  0  0  0  0  0  0  0
  1  2  1  0
  2  3  1  0
  3  4  1  0
  4  5  2  0
  4  6  1  0
  6  7  1  0
  7  8  1  0
  8  9  1  0
  9 10  1  0
 10 11  2  0
 11 12  1  0
 12 13  2  0
 13 14  1  0
 14 15  1  0
 14 16  1  0
 14 17  1  0
 10 18  1  0
  2 19  1  0
 19 20  1  0
 20 21  2  0
 21 22  1  0
 22 23  1  0
 22 24  2  0
 24 25  1  0
 24 26  1  0
 26 27  2  0
 27 28  1  0
 29 30  2  0
 30 31  1  0
 30 32  1  0
 30 33  1  0
 18  6  1  0
 27 20  1  0
 13  9  1  0
  1 34  1  0
  1 35  1  0
  2 36  1  1
  3 37  1  0
  3 38  1  0
  7 39  1  0
  7 40  1  0
  8 41  1  0
  8 42  1  0
 18 43  1  0
 18 44  1  0
 19 45  1  0
 19 46  1  0
 21 47  1  0
 26 48  1  0
 31 49  1  0
 32 50  1  0
 33 51  1  0
M  END
$$$$
