
     RDKit          3D

 31 31  0  0  0  0  0  0  0  0999 V2000
    3.8491    0.5336   -0.4532 C   0  0  0  0  0  0  0  0  0  0  0  0
    2.6549   -0.3058    0.0314 C   0  0  0  0  0  0  0  0  0  0  0  0
    2.9090   -0.8163    1.4509 C   0  0  0  0  0  0  0  0  0  0  0  0
    1.3991    0.4662    0.0195 N   0  0  0  0  0  0  0  0  0  0  0  0
    0.8626    0.6465   -1.3351 C   0  0  0  0  0  0  0  0  0  0  0  0
   -0.5587    1.1222   -1.2512 C   0  0  0  0  0  0  0  0  0  0  0  0
   -0.8443    2.2703   -1.6876 O   0  0  0  0  0  0  0  0  0  0  0  0
   -1.5890    0.3016   -0.6646 N   0  0  0  0  0  0  0  0  0  0  0  0
   -1.4155   -1.1081   -0.3507 C   0  0  0  0  0  0  0  0  0  0  0  0
   -2.8139   -1.6480   -0.0838 C   0  0  0  0  0  0  0  0  0  0  0  0
   -3.6927   -0.4282    0.1774 C   0  0  0  0  0  0  0  0  0  0  0  0
   -2.9553    0.7583   -0.4480 C   0  0  1  0  0  0  0  0  0  0  0  0
   -2.9809    1.9282    0.4468 C   0  0  0  0  0  0  0  0  0  0  0  0
   -3.0002    2.8475    1.1495 N   0  0  0  0  0  0  0  0  0  0  0  0
    4.7858   -0.0599   -0.3848 H   0  0  0  0  0  0  0  0  0  0  0  0
    3.9625    1.4505    0.1639 H   0  0  0  0  0  0  0  0  0  0  0  0
    3.7144    0.8264   -1.5146 H   0  0  0  0  0  0  0  0  0  0  0  0
    2.5611   -1.2016   -0.6234 H   0  0  0  0  0  0  0  0  0  0  0  0
    3.0353    0.0342    2.1549 H   0  0  0  0  0  0  0  0  0  0  0  0
    3.8234   -1.4469    1.4771 H   0  0  0  0  0  0  0  0  0  0  0  0
    2.0492   -1.4339    1.7883 H   0  0  0  0  0  0  0  0  0  0  0  0
    1.5565    1.4081    0.4511 H   0  0  0  0  0  0  0  0  0  0  0  0
    0.8820   -0.3075   -1.9043 H   0  0  0  0  0  0  0  0  0  0  0  0
    1.4714    1.3916   -1.8933 H   0  0  0  0  0  0  0  0  0  0  0  0
   -0.9574   -1.6493   -1.2063 H   0  0  0  0  0  0  0  0  0  0  0  0
   -0.7771   -1.2143    0.5527 H   0  0  0  0  0  0  0  0  0  0  0  0
   -2.8194   -2.3455    0.7819 H   0  0  0  0  0  0  0  0  0  0  0  0
   -3.1849   -2.1843   -0.9851 H   0  0  0  0  0  0  0  0  0  0  0  0
   -4.6995   -0.5577   -0.2764 H   0  0  0  0  0  0  0  0  0  0  0  0
   -3.8117   -0.3041    1.2781 H   0  0  0  0  0  0  0  0  0  0  0  0
   -3.4159    1.0261   -1.4238 H   0  0  0  0  0  0  0  0  0  0  0  0
  1  2  1  0
  2  3  1  0
  2  4  1  0
  4  5  1  0
  5  6  1  0
  6  7  2  0
  6  8  1  0
  8  9  1  0
  9 10  1  0
 10 11  1  0
 11 12  1  0
 12 13  1  0
 13 14  3  0
 12  8  1  0
  1 15  1  0
  1 16  1  0
  1 17  1  0
  2 18  1  0
  3 19  1  0
  3 20  1  0
  3 21  1  0
  4 22  1  0
  5 23  1  0
  5 24  1  0
  9 25  1  0
  9 26  1  0
 10 27  1  0
 10 28  1  0
 11 29  1  0
 11 30  1  0
 12 31  1  6
M  END
$$$$
