
     RDKit          3D

 57 61  0  0  0  0  0  0  0  0999 V2000
    3.6407    1.8121   -2.2337 N   0  0  0  0  0  0  0  0  0  0  0  0
    3.6634    1.4544   -1.1334 C   0  0  0  0  0  0  0  0  0  0  0  0
    3.6922    0.9983    0.2660 C   0  0  2  0  0  0  0  0  0  0  0  0
    3.9550    2.1676    1.2152 C   0  0  0  0  0  0  0  0  0  0  0  0
    5.4490    2.1097    1.5298 C   0  0  0  0  0  0  0  0  0  0  0  0
    6.1418    2.9452    0.6687 F   0  0  0  0  0  0  0  0  0  0  0  0
    5.6961    2.4896    2.8384 F   0  0  0  0  0  0  0  0  0  0  0  0
    5.8603    0.6600    1.2922 C   0  0  0  0  0  0  0  0  0  0  0  0
    4.8090    0.0832    0.4690 N   0  0  0  0  0  0  0  0  0  0  0  0
    4.8453   -1.2872    0.0238 C   0  0  0  0  0  0  0  0  0  0  0  0
    5.8708   -1.9871    0.2435 O   0  0  0  0  0  0  0  0  0  0  0  0
    3.6667   -1.9250   -0.6568 C   0  0  0  0  0  0  0  0  0  0  0  0
    2.6016   -2.1983    0.3064 N   0  0  0  0  0  0  0  0  0  0  0  0
    1.3040   -2.6359   -0.1180 C   0  0  0  0  0  0  0  0  0  0  0  0
    1.0736   -2.8341   -1.3422 O   0  0  0  0  0  0  0  0  0  0  0  0
    0.2395   -2.8836    0.8788 C   0  0  0  0  0  0  0  0  0  0  0  0
    0.5420   -3.6874    1.9881 C   0  0  0  0  0  0  0  0  0  0  0  0
   -0.4466   -3.9865    2.9242 C   0  0  0  0  0  0  0  0  0  0  0  0
   -1.7026   -3.4974    2.7710 N   0  0  0  0  0  0  0  0  0  0  0  0
   -2.0399   -2.7012    1.7226 C   0  0  0  0  0  0  0  0  0  0  0  0
   -3.3459   -2.2118    1.6228 C   0  0  0  0  0  0  0  0  0  0  0  0
   -3.7020   -1.3670    0.5714 C   0  0  0  0  0  0  0  0  0  0  0  0
   -2.7501   -0.9875   -0.3853 C   0  0  0  0  0  0  0  0  0  0  0  0
   -3.1250   -0.0813   -1.4937 C   0  0  0  0  0  0  0  0  0  0  0  0
   -3.0336   -0.5643   -2.8088 C   0  0  0  0  0  0  0  0  0  0  0  0
   -3.4208    0.2307   -3.8863 C   0  0  0  0  0  0  0  0  0  0  0  0
   -3.9033    1.5198   -3.6691 C   0  0  0  0  0  0  0  0  0  0  0  0
   -3.9839    2.0350   -2.3664 C   0  0  0  0  0  0  0  0  0  0  0  0
   -3.5742    1.2452   -1.2650 C   0  0  0  0  0  0  0  0  0  0  0  0
   -3.6915    1.8118    0.1420 C   0  0  0  0  0  0  0  0  0  0  0  0
   -3.4835    3.3306    0.1633 C   0  0  0  0  0  0  0  0  0  0  0  0
   -4.3443    3.9751   -0.8223 N   0  0  0  0  0  0  0  0  0  0  0  0
   -4.4801    3.4061   -2.1258 C   0  0  0  0  0  0  0  0  0  0  0  0
   -5.0329    4.0683   -3.0448 O   0  0  0  0  0  0  0  0  0  0  0  0
   -1.4416   -1.4880   -0.3002 C   0  0  0  0  0  0  0  0  0  0  0  0
   -1.0720   -2.3609    0.7446 C   0  0  0  0  0  0  0  0  0  0  0  0
    2.7270    0.5117    0.5221 H   0  0  0  0  0  0  0  0  0  0  0  0
    3.6604    3.1539    0.7914 H   0  0  0  0  0  0  0  0  0  0  0  0
    3.3771    2.0063    2.1523 H   0  0  0  0  0  0  0  0  0  0  0  0
    6.8385    0.6041    0.7668 H   0  0  0  0  0  0  0  0  0  0  0  0
    5.9209    0.1066    2.2547 H   0  0  0  0  0  0  0  0  0  0  0  0
    3.2903   -1.2517   -1.4545 H   0  0  0  0  0  0  0  0  0  0  0  0
    3.9770   -2.8780   -1.1375 H   0  0  0  0  0  0  0  0  0  0  0  0
    2.7674   -2.0302    1.3254 H   0  0  0  0  0  0  0  0  0  0  0  0
    1.5341   -4.1031    2.1167 H   0  0  0  0  0  0  0  0  0  0  0  0
   -0.2159   -4.6163    3.7730 H   0  0  0  0  0  0  0  0  0  0  0  0
   -4.0876   -2.4821    2.3643 H   0  0  0  0  0  0  0  0  0  0  0  0
   -4.7201   -1.0038    0.5049 H   0  0  0  0  0  0  0  0  0  0  0  0
   -2.6801   -1.5708   -2.9987 H   0  0  0  0  0  0  0  0  0  0  0  0
   -3.3549   -0.1579   -4.8944 H   0  0  0  0  0  0  0  0  0  0  0  0
   -4.2042    2.1177   -4.5204 H   0  0  0  0  0  0  0  0  0  0  0  0
   -4.7017    1.5759    0.5399 H   0  0  0  0  0  0  0  0  0  0  0  0
   -2.9341    1.3598    0.8171 H   0  0  0  0  0  0  0  0  0  0  0  0
   -3.7070    3.7289    1.1764 H   0  0  0  0  0  0  0  0  0  0  0  0
   -2.4226    3.5598   -0.0773 H   0  0  0  0  0  0  0  0  0  0  0  0
   -4.8218    4.8747   -0.5893 H   0  0  0  0  0  0  0  0  0  0  0  0
   -0.7199   -1.1640   -1.0377 H   0  0  0  0  0  0  0  0  0  0  0  0
  1  2  3  0
  2  3  1  0
  3  4  1  0
  4  5  1  0
  5  6  1  0
  5  7  1  0
  5  8  1  0
  8  9  1  0
  9 10  1  0
 10 11  2  0
 10 12  1  0
 12 13  1  0
 13 14  1  0
 14 15  2  0
 14 16  1  0
 16 17  2  0
 17 18  1  0
 18 19  2  0
 19 20  1  0
 20 21  2  0
 21 22  1  0
 22 23  2  0
 23 24  1  0
 24 25  2  0
 25 26  1  0
 26 27  2  0
 27 28  1  0
 28 29  2  0
 29 30  1  0
 30 31  1  0
 31 32  1  0
 32 33  1  0
 33 34  2  0
 23 35  1  0
 35 36  2  0
  9  3  1  0
 36 16  1  0
 36 20  1  0
 29 24  1  0
 33 28  1  0
  3 37  1  1
  4 38  1  0
  4 39  1  0
  8 40  1  0
  8 41  1  0
 12 42  1  0
 12 43  1  0
 13 44  1  0
 17 45  1  0
 18 46  1  0
 21 47  1  0
 22 48  1  0
 25 49  1  0
 26 50  1  0
 27 51  1  0
 30 52  1  0
 30 53  1  0
 31 54  1  0
 31 55  1  0
 32 56  1  0
 35 57  1  0
M  END
$$$$
