
     RDKit          3D

 99105  0  0  0  0  0  0  0  0999 V2000
    5.4459   -0.5230   -1.7182 O   0  0  0  0  0  0  0  0  0  0  0  0
    6.2378   -1.4205   -1.3211 C   0  0  0  0  0  0  0  0  0  0  0  0
    7.7147   -1.1686   -1.3541 C   0  0  0  0  0  0  0  0  0  0  0  0
    8.1989   -0.6635    0.0109 C   0  0  0  0  0  0  0  0  0  0  0  0
    9.7247   -0.4960    0.0696 C   0  0  0  0  0  0  0  0  0  0  0  0
   10.2324    0.6358   -0.8504 C   0  0  0  0  0  0  0  0  0  0  0  0
   11.6648    1.1343   -0.5392 C   0  0  0  0  0  0  0  0  0  0  0  0
   12.8212   -0.1992   -0.0933 S   0  0  0  0  0  0  0  0  0  0  0  0
   13.9843    1.0481    0.5213 C   0  0  0  0  0  0  0  0  0  0  0  0
   13.1825    2.1745    1.1708 C   0  0  0  0  0  0  0  0  0  0  0  0
   12.9695    1.9024    2.5889 N   0  0  0  0  0  0  0  0  0  0  0  0
   11.5822    1.8488    2.8149 C   0  0  0  0  0  0  0  0  0  0  0  0
   11.0676    1.6658    3.9488 O   0  0  0  0  0  0  0  0  0  0  0  0
   10.8312    2.0359    1.6401 N   0  0  0  0  0  0  0  0  0  0  0  0
   11.7644    2.2363    0.5338 C   0  0  0  0  0  0  0  0  0  0  0  0
    5.7308   -2.6576   -0.8010 N   0  0  0  0  0  0  0  0  0  0  0  0
    4.3007   -2.9264   -0.6698 C   0  0  0  0  0  0  0  0  0  0  0  0
    3.7191   -2.1617    0.5222 C   0  0  0  0  0  0  0  0  0  0  0  0
    2.3497   -2.4799    0.6887 O   0  0  0  0  0  0  0  0  0  0  0  0
    1.5196   -1.5680   -0.0075 C   0  0  0  0  0  0  0  0  0  0  0  0
    1.0701   -0.4423    0.9274 C   0  0  0  0  0  0  0  0  0  0  0  0
    0.2067    0.5000    0.2182 N   0  0  0  0  0  0  0  0  0  0  0  0
   -1.1585    0.2044   -0.1084 C   0  0  0  0  0  0  0  0  0  0  0  0
   -1.6655   -0.8917    0.2527 O   0  0  0  0  0  0  0  0  0  0  0  0
   -1.9358    1.1679   -0.8415 N   0  0  0  0  0  0  0  0  0  0  0  0
   -3.3423    0.9948   -1.2544 C   0  0  0  0  0  0  0  0  0  0  0  0
   -3.7975    2.2535   -2.0452 C   0  0  0  0  0  0  0  0  0  0  0  0
   -5.2623    2.1017   -2.5001 C   0  0  0  0  0  0  0  0  0  0  0  0
   -5.3946    0.8684   -3.4129 C   0  0  0  0  0  0  0  0  0  0  0  0
   -4.9648   -0.3893   -2.6348 C   0  0  0  0  0  0  0  0  0  0  0  0
   -5.8706   -0.5692   -1.3967 C   0  0  0  0  0  0  0  0  0  0  0  0
   -5.7503    0.6673   -0.4550 C   0  0  0  0  0  0  0  0  0  0  0  0
   -6.6623    0.5729    0.7115 N   0  0  0  0  0  0  0  0  0  0  0  0
   -6.6069   -0.6737    1.4955 C   0  0  0  0  0  0  0  0  0  0  0  0
   -7.7230   -1.5918    1.0856 C   0  0  0  0  0  0  0  0  0  0  0  0
   -7.4408   -2.7115    0.5796 O   0  0  0  0  0  0  0  0  0  0  0  0
   -9.1005   -1.2216    1.2658 N   0  0  0  0  0  0  0  0  0  0  0  0
  -10.2171   -2.0759    0.8565 C   0  0  0  0  0  0  0  0  0  0  0  0
  -11.4062   -1.3019    1.2862 C   0  0  0  0  0  0  0  0  0  0  0  0
  -12.7510   -1.6472    1.1445 C   0  0  0  0  0  0  0  0  0  0  0  0
  -13.7265   -0.7595    1.6279 C   0  0  0  0  0  0  0  0  0  0  0  0
  -15.0405   -1.0698    1.5033 F   0  0  0  0  0  0  0  0  0  0  0  0
  -13.3431    0.4505    2.2407 C   0  0  0  0  0  0  0  0  0  0  0  0
  -14.2883    1.3044    2.7054 F   0  0  0  0  0  0  0  0  0  0  0  0
  -11.9831    0.7764    2.3721 C   0  0  0  0  0  0  0  0  0  0  0  0
  -11.0320   -0.1214    1.8849 C   0  0  0  0  0  0  0  0  0  0  0  0
   -9.5560    0.0133    1.9105 C   0  0  0  0  0  0  0  0  0  0  0  0
   -6.1656    1.9265   -1.2640 C   0  0  0  0  0  0  0  0  0  0  0  0
   -4.2648    0.8379   -0.0125 C   0  0  0  0  0  0  0  0  0  0  0  0
   -3.4951   -0.2432   -2.1818 C   0  0  0  0  0  0  0  0  0  0  0  0
    7.9371   -0.4164   -2.1411 H   0  0  0  0  0  0  0  0  0  0  0  0
    8.2411   -2.1110   -1.6193 H   0  0  0  0  0  0  0  0  0  0  0  0
    7.9029   -1.3972    0.7931 H   0  0  0  0  0  0  0  0  0  0  0  0
    7.7058    0.3037    0.2537 H   0  0  0  0  0  0  0  0  0  0  0  0
   10.2089   -1.4552   -0.2162 H   0  0  0  0  0  0  0  0  0  0  0  0
   10.0039   -0.2955    1.1235 H   0  0  0  0  0  0  0  0  0  0  0  0
    9.5365    1.5025   -0.8186 H   0  0  0  0  0  0  0  0  0  0  0  0
   10.2223    0.2562   -1.8952 H   0  0  0  0  0  0  0  0  0  0  0  0
   12.0592    1.5778   -1.4811 H   0  0  0  0  0  0  0  0  0  0  0  0
   14.5567    1.4495   -0.3425 H   0  0  0  0  0  0  0  0  0  0  0  0
   14.6992    0.5884    1.2365 H   0  0  0  0  0  0  0  0  0  0  0  0
   13.7125    3.1456    1.0574 H   0  0  0  0  0  0  0  0  0  0  0  0
   13.7116    1.8209    3.3191 H   0  0  0  0  0  0  0  0  0  0  0  0
    9.7919    2.1288    1.5950 H   0  0  0  0  0  0  0  0  0  0  0  0
   11.5828    3.2356    0.0802 H   0  0  0  0  0  0  0  0  0  0  0  0
    6.4052   -3.4115   -0.5385 H   0  0  0  0  0  0  0  0  0  0  0  0
    3.7780   -2.6472   -1.6096 H   0  0  0  0  0  0  0  0  0  0  0  0
    4.1475   -4.0154   -0.5063 H   0  0  0  0  0  0  0  0  0  0  0  0
    4.2570   -2.4850    1.4387 H   0  0  0  0  0  0  0  0  0  0  0  0
    3.9047   -1.0669    0.4226 H   0  0  0  0  0  0  0  0  0  0  0  0
    0.6247   -2.1253   -0.3545 H   0  0  0  0  0  0  0  0  0  0  0  0
    1.9971   -1.1429   -0.9220 H   0  0  0  0  0  0  0  0  0  0  0  0
    0.5330   -0.8622    1.8054 H   0  0  0  0  0  0  0  0  0  0  0  0
    1.9641    0.0995    1.3040 H   0  0  0  0  0  0  0  0  0  0  0  0
    0.5894    1.4438   -0.0151 H   0  0  0  0  0  0  0  0  0  0  0  0
   -1.4479    2.0553   -1.1019 H   0  0  0  0  0  0  0  0  0  0  0  0
   -3.6979    3.1617   -1.4099 H   0  0  0  0  0  0  0  0  0  0  0  0
   -3.1464    2.4023   -2.9354 H   0  0  0  0  0  0  0  0  0  0  0  0
   -5.5726    3.0108   -3.0599 H   0  0  0  0  0  0  0  0  0  0  0  0
   -6.4462    0.7613   -3.7590 H   0  0  0  0  0  0  0  0  0  0  0  0
   -4.7585    0.9932   -4.3167 H   0  0  0  0  0  0  0  0  0  0  0  0
   -5.0606   -1.2794   -3.2943 H   0  0  0  0  0  0  0  0  0  0  0  0
   -6.9270   -0.7034   -1.7187 H   0  0  0  0  0  0  0  0  0  0  0  0
   -5.5582   -1.4989   -0.8772 H   0  0  0  0  0  0  0  0  0  0  0  0
   -6.4717    1.3770    1.3558 H   0  0  0  0  0  0  0  0  0  0  0  0
   -6.7367   -0.4432    2.5757 H   0  0  0  0  0  0  0  0  0  0  0  0
   -5.6297   -1.1903    1.4086 H   0  0  0  0  0  0  0  0  0  0  0  0
  -10.1749   -3.0516    1.3860 H   0  0  0  0  0  0  0  0  0  0  0  0
  -10.2163   -2.2133   -0.2458 H   0  0  0  0  0  0  0  0  0  0  0  0
  -13.0359   -2.5787    0.6725 H   0  0  0  0  0  0  0  0  0  0  0  0
  -11.6791    1.7036    2.8404 H   0  0  0  0  0  0  0  0  0  0  0  0
   -9.2431    0.9015    1.3225 H   0  0  0  0  0  0  0  0  0  0  0  0
   -9.1883    0.0665    2.9571 H   0  0  0  0  0  0  0  0  0  0  0  0
   -6.0949    2.8345   -0.6245 H   0  0  0  0  0  0  0  0  0  0  0  0
   -7.2269    1.8380   -1.5871 H   0  0  0  0  0  0  0  0  0  0  0  0
   -4.1622    1.7314    0.6427 H   0  0  0  0  0  0  0  0  0  0  0  0
   -3.9448   -0.0367    0.5841 H   0  0  0  0  0  0  0  0  0  0  0  0
   -3.1908   -1.1745   -1.6611 H   0  0  0  0  0  0  0  0  0  0  0  0
   -2.8362   -0.1352   -3.0716 H   0  0  0  0  0  0  0  0  0  0  0  0
  1  2  2  0
  2  3  1  0
  3  4  1  0
  4  5  1  0
  5  6  1  0
  6  7  1  0
  7  8  1  0
  8  9  1  0
  9 10  1  0
 10 11  1  0
 11 12  1  0
 12 13  2  0
 12 14  1  0
 14 15  1  0
  2 16  1  0
 16 17  1  0
 17 18  1  0
 18 19  1  0
 19 20  1  0
 20 21  1  0
 21 22  1  0
 22 23  1  0
 23 24  2  0
 23 25  1  0
 25 26  1  0
 26 27  1  0
 27 28  1  0
 28 29  1  0
 29 30  1  0
 30 31  1  0
 31 32  1  0
 32 33  1  0
 33 34  1  0
 34 35  1  0
 35 36  2  0
 35 37  1  0
 37 38  1  0
 38 39  1  0
 39 40  2  0
 40 41  1  0
 41 42  1  0
 41 43  2  0
 43 44  1  0
 43 45  1  0
 45 46  2  0
 46 47  1  0
 32 48  1  0
 32 49  1  0
 30 50  1  0
 15  7  1  0
 49 26  1  0
 15 10  1  0
 50 26  1  0
 48 28  1  0
 47 37  1  0
 46 39  1  0
  3 51  1  0
  3 52  1  0
  4 53  1  0
  4 54  1  0
  5 55  1  0
  5 56  1  0
  6 57  1  0
  6 58  1  0
  7 59  1  0
  9 60  1  0
  9 61  1  0
 10 62  1  0
 11 63  1  0
 14 64  1  0
 15 65  1  0
 16 66  1  0
 17 67  1  0
 17 68  1  0
 18 69  1  0
 18 70  1  0
 20 71  1  0
 20 72  1  0
 21 73  1  0
 21 74  1  0
 22 75  1  0
 25 76  1  0
 27 77  1  0
 27 78  1  0
 28 79  1  0
 29 80  1  0
 29 81  1  0
 30 82  1  0
 31 83  1  0
 31 84  1  0
 33 85  1  0
 34 86  1  0
 34 87  1  0
 38 88  1  0
 38 89  1  0
 40 90  1  0
 45 91  1  0
 47 92  1  0
 47 93  1  0
 48 94  1  0
 48 95  1  0
 49 96  1  0
 49 97  1  0
 50 98  1  0
 50 99  1  0
M  END
$$$$
