
     RDKit          3D

 46 49  0  0  0  0  0  0  0  0999 V2000
    1.0418    4.5587   -0.4872 C   0  0  0  0  0  0  0  0  0  0  0  0
    0.6438    3.1648   -0.3194 N   0  0  0  0  0  0  0  0  0  0  0  0
    1.2939    2.1885    0.3565 C   0  0  0  0  0  0  0  0  0  0  0  0
    2.4191    2.3607    0.8993 O   0  0  0  0  0  0  0  0  0  0  0  0
    0.6037    1.0138    0.4068 N   0  0  0  0  0  0  0  0  0  0  0  0
    1.0403   -0.2350    1.0482 C   0  0  0  0  0  0  0  0  0  0  0  0
    2.4838   -0.5506    0.7217 C   0  0  0  0  0  0  0  0  0  0  0  0
    3.4431   -0.5416    1.7500 C   0  0  0  0  0  0  0  0  0  0  0  0
    4.7827   -0.8241    1.4724 C   0  0  0  0  0  0  0  0  0  0  0  0
    5.1806   -1.1193    0.1679 C   0  0  0  0  0  0  0  0  0  0  0  0
    4.2405   -1.1331   -0.8647 C   0  0  0  0  0  0  0  0  0  0  0  0
    2.8932   -0.8513   -0.5992 C   0  0  0  0  0  0  0  0  0  0  0  0
    1.9518   -0.8692   -1.6936 C   0  0  0  0  0  0  0  0  0  0  0  0
    1.1975   -0.8815   -2.5711 N   0  0  0  0  0  0  0  0  0  0  0  0
   -0.5705    1.3007   -0.2140 C   0  0  0  0  0  0  0  0  0  0  0  0
   -1.7354    0.5339   -0.4049 C   0  0  0  0  0  0  0  0  0  0  0  0
   -1.9152   -0.7708    0.1587 N   0  0  0  0  0  0  0  0  0  0  0  0
   -2.2749   -0.9101    1.5742 C   0  0  0  0  0  0  0  0  0  0  0  0
   -3.5740   -1.7277    1.7338 C   0  0  0  0  0  0  0  0  0  0  0  0
   -3.8161   -2.6885    0.6374 N   0  0  0  0  0  0  0  0  0  0  0  0
   -2.5793   -3.1331   -0.0131 C   0  0  0  0  0  0  0  0  0  0  0  0
   -1.9323   -1.9434   -0.7224 C   0  0  0  0  0  0  0  0  0  0  0  0
   -2.8014    1.1419   -1.0988 C   0  0  0  0  0  0  0  0  0  0  0  0
   -2.6870    2.4728   -1.5508 C   0  0  0  0  0  0  0  0  0  0  0  0
   -1.5509    3.1900   -1.3137 N   0  0  0  0  0  0  0  0  0  0  0  0
   -0.5226    2.5957   -0.6597 C   0  0  0  0  0  0  0  0  0  0  0  0
    2.1471    4.6344   -0.5625 H   0  0  0  0  0  0  0  0  0  0  0  0
    0.5973    4.9746   -1.4160 H   0  0  0  0  0  0  0  0  0  0  0  0
    0.6923    5.1519    0.3835 H   0  0  0  0  0  0  0  0  0  0  0  0
    0.4462   -1.0928    0.6910 H   0  0  0  0  0  0  0  0  0  0  0  0
    0.8811   -0.1515    2.1447 H   0  0  0  0  0  0  0  0  0  0  0  0
    3.1557   -0.3115    2.7685 H   0  0  0  0  0  0  0  0  0  0  0  0
    5.5138   -0.8131    2.2705 H   0  0  0  0  0  0  0  0  0  0  0  0
    6.2194   -1.3372   -0.0439 H   0  0  0  0  0  0  0  0  0  0  0  0
    4.5649   -1.3629   -1.8727 H   0  0  0  0  0  0  0  0  0  0  0  0
   -2.3938    0.0857    2.0561 H   0  0  0  0  0  0  0  0  0  0  0  0
   -1.4539   -1.4391    2.1033 H   0  0  0  0  0  0  0  0  0  0  0  0
   -4.4329   -1.0241    1.7668 H   0  0  0  0  0  0  0  0  0  0  0  0
   -3.5456   -2.2597    2.7114 H   0  0  0  0  0  0  0  0  0  0  0  0
   -4.2976   -3.5295    1.0334 H   0  0  0  0  0  0  0  0  0  0  0  0
   -2.8140   -3.9206   -0.7618 H   0  0  0  0  0  0  0  0  0  0  0  0
   -1.8790   -3.5671    0.7360 H   0  0  0  0  0  0  0  0  0  0  0  0
   -0.8971   -2.2016   -1.0292 H   0  0  0  0  0  0  0  0  0  0  0  0
   -2.5228   -1.7145   -1.6365 H   0  0  0  0  0  0  0  0  0  0  0  0
   -3.7241    0.5993   -1.2616 H   0  0  0  0  0  0  0  0  0  0  0  0
   -3.5132    2.9369   -2.0725 H   0  0  0  0  0  0  0  0  0  0  0  0
  1  2  1  0
  2  3  1  0
  3  4  2  0
  3  5  1  0
  5  6  1  0
  6  7  1  0
  7  8  2  0
  8  9  1  0
  9 10  2  0
 10 11  1  0
 11 12  2  0
 12 13  1  0
 13 14  3  0
  5 15  1  0
 15 16  2  0
 16 17  1  0
 17 18  1  0
 18 19  1  0
 19 20  1  0
 20 21  1  0
 21 22  1  0
 16 23  1  0
 23 24  2  0
 24 25  1  0
 25 26  2  0
 26  2  1  0
 12  7  1  0
 26 15  1  0
 22 17  1  0
  1 27  1  0
  1 28  1  0
  1 29  1  0
  6 30  1  0
  6 31  1  0
  8 32  1  0
  9 33  1  0
 10 34  1  0
 11 35  1  0
 18 36  1  0
 18 37  1  0
 19 38  1  0
 19 39  1  0
 20 40  1  0
 21 41  1  0
 21 42  1  0
 22 43  1  0
 22 44  1  0
 23 45  1  0
 24 46  1  0
M  END
$$$$
