
     RDKit          3D

 51 53  0  0  0  0  0  0  0  0999 V2000
   -2.4839    0.9876    2.3483 N   0  0  0  0  0  0  0  0  0  0  0  0
   -1.8951    0.7083    1.0309 C   0  0  2  0  0  0  0  0  0  0  0  0
   -2.9041    1.0329   -0.0532 C   0  0  0  0  0  0  0  0  0  0  0  0
   -2.5374    1.7953   -0.9893 O   0  0  0  0  0  0  0  0  0  0  0  0
   -4.2342    0.4722   -0.0921 N   0  0  0  0  0  0  0  0  0  0  0  0
   -4.9184   -0.1736    1.0186 C   0  0  0  0  0  0  0  0  0  0  0  0
   -6.2495   -0.6578    0.4598 C   0  0  0  0  0  0  0  0  0  0  0  0
   -6.4715    0.1382   -0.8229 C   0  0  0  0  0  0  0  0  0  0  0  0
   -7.0659   -0.6462   -1.7972 F   0  0  0  0  0  0  0  0  0  0  0  0
   -7.2767    1.2349   -0.5603 F   0  0  0  0  0  0  0  0  0  0  0  0
   -5.0877    0.6022   -1.2631 C   0  0  0  0  0  0  0  0  0  0  0  0
   -1.3320   -0.7487    0.9154 C   0  0  1  0  0  0  0  0  0  0  0  0
   -0.8380   -1.0885   -0.5124 C   0  0  0  0  0  0  0  0  0  0  0  0
    0.4299   -0.3080   -0.9071 C   0  0  0  0  0  0  0  0  0  0  0  0
    1.4317   -0.1276    0.2617 C   0  0  2  0  0  0  0  0  0  0  0  0
    2.8095   -0.2317   -0.2288 N   0  0  0  0  0  0  0  0  0  0  0  0
    3.8756    0.5823    0.2886 C   0  0  0  0  0  0  0  0  0  0  0  0
    3.6635    1.3336    1.2800 O   0  0  0  0  0  0  0  0  0  0  0  0
    5.2303    0.5387   -0.3130 C   0  0  0  0  0  0  0  0  0  0  0  0
    5.4210    0.1194   -1.6434 C   0  0  0  0  0  0  0  0  0  0  0  0
    6.7038    0.0893   -2.1992 C   0  0  0  0  0  0  0  0  0  0  0  0
    7.8081    0.4813   -1.4390 C   0  0  0  0  0  0  0  0  0  0  0  0
    9.0496    0.4507   -1.9836 F   0  0  0  0  0  0  0  0  0  0  0  0
    7.6307    0.9098   -0.1207 C   0  0  0  0  0  0  0  0  0  0  0  0
    8.7009    1.2947    0.6180 F   0  0  0  0  0  0  0  0  0  0  0  0
    6.3495    0.9425    0.4393 C   0  0  0  0  0  0  0  0  0  0  0  0
    1.2002   -1.1590    1.3747 C   0  0  0  0  0  0  0  0  0  0  0  0
   -0.2154   -1.0323    1.9691 C   0  0  0  0  0  0  0  0  0  0  0  0
   -2.7507    0.1014    2.8349 H   0  0  0  0  0  0  0  0  0  0  0  0
   -1.7753    1.4649    2.9519 H   0  0  0  0  0  0  0  0  0  0  0  0
   -1.0392    1.4066    0.8890 H   0  0  0  0  0  0  0  0  0  0  0  0
   -5.0933    0.5651    1.8301 H   0  0  0  0  0  0  0  0  0  0  0  0
   -4.3405   -1.0372    1.4017 H   0  0  0  0  0  0  0  0  0  0  0  0
   -7.0756   -0.5047    1.1878 H   0  0  0  0  0  0  0  0  0  0  0  0
   -6.1763   -1.7418    0.2197 H   0  0  0  0  0  0  0  0  0  0  0  0
   -5.1214    1.6586   -1.6087 H   0  0  0  0  0  0  0  0  0  0  0  0
   -4.6929   -0.0432   -2.0778 H   0  0  0  0  0  0  0  0  0  0  0  0
   -2.1640   -1.4519    1.1259 H   0  0  0  0  0  0  0  0  0  0  0  0
   -1.6347   -0.9167   -1.2668 H   0  0  0  0  0  0  0  0  0  0  0  0
   -0.6118   -2.1771   -0.5544 H   0  0  0  0  0  0  0  0  0  0  0  0
    0.9068   -0.8443   -1.7563 H   0  0  0  0  0  0  0  0  0  0  0  0
    0.1384    0.6946   -1.2889 H   0  0  0  0  0  0  0  0  0  0  0  0
    1.2705    0.8852    0.6937 H   0  0  0  0  0  0  0  0  0  0  0  0
    3.0544   -1.0559   -0.8227 H   0  0  0  0  0  0  0  0  0  0  0  0
    4.5823   -0.1639   -2.2653 H   0  0  0  0  0  0  0  0  0  0  0  0
    6.8398   -0.2328   -3.2236 H   0  0  0  0  0  0  0  0  0  0  0  0
    6.2343    1.2737    1.4641 H   0  0  0  0  0  0  0  0  0  0  0  0
    1.9493   -1.0138    2.1836 H   0  0  0  0  0  0  0  0  0  0  0  0
    1.3442   -2.1841    0.9670 H   0  0  0  0  0  0  0  0  0  0  0  0
   -0.4487   -1.9809    2.5005 H   0  0  0  0  0  0  0  0  0  0  0  0
   -0.1903   -0.2423    2.7482 H   0  0  0  0  0  0  0  0  0  0  0  0
  1  2  1  0
  2  3  1  0
  3  4  2  0
  3  5  1  0
  5  6  1  0
  6  7  1  0
  7  8  1  0
  8  9  1  0
  8 10  1  0
  8 11  1  0
  2 12  1  0
 12 13  1  0
 13 14  1  0
 14 15  1  0
 15 16  1  0
 16 17  1  0
 17 18  2  0
 17 19  1  0
 19 20  2  0
 20 21  1  0
 21 22  2  0
 22 23  1  0
 22 24  1  0
 24 25  1  0
 24 26  2  0
 15 27  1  0
 27 28  1  0
 11  5  1  0
 28 12  1  0
 26 19  1  0
  1 29  1  0
  1 30  1  0
  2 31  1  6
  6 32  1  0
  6 33  1  0
  7 34  1  0
  7 35  1  0
 11 36  1  0
 11 37  1  0
 12 38  1  1
 13 39  1  0
 13 40  1  0
 14 41  1  0
 14 42  1  0
 15 43  1  1
 16 44  1  0
 20 45  1  0
 21 46  1  0
 26 47  1  0
 27 48  1  0
 27 49  1  0
 28 50  1  0
 28 51  1  0
M  END
$$$$
