
     RDKit          3D

 58 61  0  0  0  0  0  0  0  0999 V2000
    6.4159   -2.5021   -0.4453 C   0  0  0  0  0  0  0  0  0  0  0  0
    6.0937   -1.1165   -0.3819 O   0  0  0  0  0  0  0  0  0  0  0  0
    4.8098   -0.5873   -0.5893 C   0  0  0  0  0  0  0  0  0  0  0  0
    3.7039   -1.4044   -0.8870 C   0  0  0  0  0  0  0  0  0  0  0  0
    2.4374   -0.8412   -1.0962 C   0  0  0  0  0  0  0  0  0  0  0  0
    2.2552    0.5446   -0.9781 C   0  0  0  0  0  0  0  0  0  0  0  0
    3.3621    1.3597   -0.6889 C   0  0  0  0  0  0  0  0  0  0  0  0
    4.6392    0.8010   -0.4950 C   0  0  0  0  0  0  0  0  0  0  0  0
    5.7618    1.5916   -0.2013 O   0  0  0  0  0  0  0  0  0  0  0  0
    5.7390    3.0093   -0.0698 C   0  0  0  0  0  0  0  0  0  0  0  0
    0.8723    1.1716   -1.1047 C   0  0  0  0  0  0  0  0  0  0  0  0
    0.3565    1.6069    0.2931 C   0  0  0  0  0  0  0  0  0  0  0  0
   -0.3320    0.4427    1.0272 C   0  0  0  0  0  0  0  0  0  0  0  0
   -0.7784    0.8716    2.3559 N   0  0  0  0  0  0  0  0  0  0  0  0
   -1.5009   -0.1597    0.1812 C   0  0  0  0  0  0  0  0  0  0  0  0
   -2.8361    0.0594    0.7879 N   0  0  0  0  0  0  0  0  0  0  0  0
   -3.5113   -1.0555    1.4736 C   0  0  0  0  0  0  0  0  0  0  0  0
   -4.7826   -1.4704    0.7239 C   0  0  0  0  0  0  0  0  0  0  0  0
   -6.0380   -0.6989    1.1709 C   0  0  0  0  0  0  0  0  0  0  0  0
   -5.8319    0.8042    1.4366 C   0  0  0  0  0  0  0  0  0  0  0  0
   -4.9375    1.4927    0.4000 C   0  0  0  0  0  0  0  0  0  0  0  0
   -3.4770    1.3533    0.7365 C   0  0  0  0  0  0  0  0  0  0  0  0
   -2.7991    2.3983    0.9254 O   0  0  0  0  0  0  0  0  0  0  0  0
   -1.4834    0.3181   -1.2894 C   0  0  0  0  0  0  0  0  0  0  0  0
   -0.1165    0.3311   -1.8496 N   0  0  0  0  0  0  0  0  0  0  0  0
    0.3416   -0.9677   -2.3936 C   0  0  0  0  0  0  0  0  0  0  0  0
    1.2720   -1.7123   -1.4391 C   0  0  0  0  0  0  0  0  0  0  0  0
    5.8395   -3.0637    0.3199 H   0  0  0  0  0  0  0  0  0  0  0  0
    7.4982   -2.6321   -0.2403 H   0  0  0  0  0  0  0  0  0  0  0  0
    6.1961   -2.8993   -1.4587 H   0  0  0  0  0  0  0  0  0  0  0  0
    3.8213   -2.4769   -0.9659 H   0  0  0  0  0  0  0  0  0  0  0  0
    3.2156    2.4282   -0.6040 H   0  0  0  0  0  0  0  0  0  0  0  0
    5.0626    3.3051    0.7598 H   0  0  0  0  0  0  0  0  0  0  0  0
    6.7626    3.3682    0.1618 H   0  0  0  0  0  0  0  0  0  0  0  0
    5.4056    3.4758   -1.0209 H   0  0  0  0  0  0  0  0  0  0  0  0
    1.0013    2.1030   -1.6988 H   0  0  0  0  0  0  0  0  0  0  0  0
    1.1913    2.0021    0.9126 H   0  0  0  0  0  0  0  0  0  0  0  0
   -0.3598    2.4464    0.1703 H   0  0  0  0  0  0  0  0  0  0  0  0
    0.4390   -0.3487    1.1707 H   0  0  0  0  0  0  0  0  0  0  0  0
    0.0496    1.2255    2.8885 H   0  0  0  0  0  0  0  0  0  0  0  0
   -1.1074    0.0263    2.8771 H   0  0  0  0  0  0  0  0  0  0  0  0
   -1.3164   -1.2537    0.1297 H   0  0  0  0  0  0  0  0  0  0  0  0
   -3.7388   -0.7722    2.5239 H   0  0  0  0  0  0  0  0  0  0  0  0
   -2.8416   -1.9399    1.5405 H   0  0  0  0  0  0  0  0  0  0  0  0
   -4.9665   -2.5534    0.8965 H   0  0  0  0  0  0  0  0  0  0  0  0
   -4.6296   -1.3451   -0.3707 H   0  0  0  0  0  0  0  0  0  0  0  0
   -6.4341   -1.1631    2.1004 H   0  0  0  0  0  0  0  0  0  0  0  0
   -6.8182   -0.8236    0.3885 H   0  0  0  0  0  0  0  0  0  0  0  0
   -6.8313    1.2916    1.4234 H   0  0  0  0  0  0  0  0  0  0  0  0
   -5.4215    0.9598    2.4588 H   0  0  0  0  0  0  0  0  0  0  0  0
   -5.1993    2.5734    0.3741 H   0  0  0  0  0  0  0  0  0  0  0  0
   -5.1286    1.0896   -0.6177 H   0  0  0  0  0  0  0  0  0  0  0  0
   -2.1623   -0.3180   -1.8988 H   0  0  0  0  0  0  0  0  0  0  0  0
   -1.8927    1.3468   -1.3705 H   0  0  0  0  0  0  0  0  0  0  0  0
   -0.5133   -1.6299   -2.6522 H   0  0  0  0  0  0  0  0  0  0  0  0
    0.8842   -0.7754   -3.3449 H   0  0  0  0  0  0  0  0  0  0  0  0
    0.7411   -2.0087   -0.5140 H   0  0  0  0  0  0  0  0  0  0  0  0
    1.6180   -2.6420   -1.9418 H   0  0  0  0  0  0  0  0  0  0  0  0
  1  2  1  0
  2  3  1  0
  3  4  2  0
  4  5  1  0
  5  6  2  0
  6  7  1  0
  7  8  2  0
  8  9  1  0
  9 10  1  0
  6 11  1  0
 11 12  1  0
 12 13  1  0
 13 14  1  0
 13 15  1  0
 15 16  1  0
 16 17  1  0
 17 18  1  0
 18 19  1  0
 19 20  1  0
 20 21  1  0
 21 22  1  0
 22 23  2  0
 15 24  1  0
 24 25  1  0
 25 26  1  0
 26 27  1  0
  8  3  1  0
 25 11  1  0
 27  5  1  0
 22 16  1  0
  1 28  1  0
  1 29  1  0
  1 30  1  0
  4 31  1  0
  7 32  1  0
 10 33  1  0
 10 34  1  0
 10 35  1  0
 11 36  1  0
 12 37  1  0
 12 38  1  0
 13 39  1  0
 14 40  1  0
 14 41  1  0
 15 42  1  0
 17 43  1  0
 17 44  1  0
 18 45  1  0
 18 46  1  0
 19 47  1  0
 19 48  1  0
 20 49  1  0
 20 50  1  0
 21 51  1  0
 21 52  1  0
 24 53  1  0
 24 54  1  0
 26 55  1  0
 26 56  1  0
 27 57  1  0
 27 58  1  0
M  END
$$$$
