
     RDKit          3D

 50 51  0  0  0  0  0  0  0  0999 V2000
   -5.7704    1.0917    0.3327 C   0  0  0  0  0  0  0  0  0  0  0  0
   -4.8237    0.2903   -0.5616 C   0  0  0  0  0  0  0  0  0  0  0  0
   -4.2033   -0.9174    0.1691 C   0  0  2  0  0  0  0  0  0  0  0  0
   -3.2835   -0.5121    1.3475 C   0  0  0  0  0  0  0  0  0  0  0  0
   -2.0533   -1.4071    1.5176 C   0  0  0  0  0  0  0  0  0  0  0  0
   -0.9616   -0.9919    0.6206 N   0  0  0  0  0  0  0  0  0  0  0  0
    0.3769   -0.9834    1.1601 C   0  0  0  0  0  0  0  0  0  0  0  0
    0.7197   -1.8798    1.9802 O   0  0  0  0  0  0  0  0  0  0  0  0
    1.3790    0.0560    0.7221 C   0  0  0  0  0  0  0  0  0  0  0  0
    2.5715    0.2087    1.6923 C   0  0  2  0  0  0  0  0  0  0  0  0
    2.0816    0.5510    3.0312 N   0  0  0  0  0  0  0  0  0  0  0  0
    3.5712    1.2810    1.1983 C   0  0  0  0  0  0  0  0  0  0  0  0
    4.2506    0.8787   -0.0885 C   0  0  0  0  0  0  0  0  0  0  0  0
    3.8037    1.4007   -1.3150 C   0  0  0  0  0  0  0  0  0  0  0  0
    4.4113    1.0109   -2.5124 C   0  0  0  0  0  0  0  0  0  0  0  0
    3.9709    1.5189   -3.6900 F   0  0  0  0  0  0  0  0  0  0  0  0
    5.4684    0.0961   -2.4956 C   0  0  0  0  0  0  0  0  0  0  0  0
    6.0580   -0.2833   -3.6563 F   0  0  0  0  0  0  0  0  0  0  0  0
    5.9171   -0.4308   -1.2814 C   0  0  0  0  0  0  0  0  0  0  0  0
    5.3120   -0.0455   -0.0805 C   0  0  0  0  0  0  0  0  0  0  0  0
    5.7601   -0.5728    1.0871 F   0  0  0  0  0  0  0  0  0  0  0  0
   -1.1501   -0.8197   -0.8390 C   0  0  2  0  0  0  0  0  0  0  0  0
   -1.2746    0.6584   -1.2409 C   0  0  0  0  0  0  0  0  0  0  0  0
   -2.2730   -1.6620   -1.4135 C   0  0  0  0  0  0  0  0  0  0  0  0
   -2.0531   -2.2779   -2.4917 O   0  0  0  0  0  0  0  0  0  0  0  0
   -3.5637   -1.8169   -0.7992 N   0  0  0  0  0  0  0  0  0  0  0  0
   -5.2209    1.5386    1.1874 H   0  0  0  0  0  0  0  0  0  0  0  0
   -6.5828    0.4402    0.7190 H   0  0  0  0  0  0  0  0  0  0  0  0
   -6.2279    1.9141   -0.2565 H   0  0  0  0  0  0  0  0  0  0  0  0
   -5.4054   -0.0775   -1.4351 H   0  0  0  0  0  0  0  0  0  0  0  0
   -4.0349    0.9632   -0.9503 H   0  0  0  0  0  0  0  0  0  0  0  0
   -5.0512   -1.4891    0.6120 H   0  0  0  0  0  0  0  0  0  0  0  0
   -2.9586    0.5453    1.2731 H   0  0  0  0  0  0  0  0  0  0  0  0
   -3.8823   -0.5674    2.2838 H   0  0  0  0  0  0  0  0  0  0  0  0
   -1.7258   -1.3151    2.5775 H   0  0  0  0  0  0  0  0  0  0  0  0
   -2.3013   -2.4781    1.3536 H   0  0  0  0  0  0  0  0  0  0  0  0
    0.8632    1.0361    0.6412 H   0  0  0  0  0  0  0  0  0  0  0  0
    1.7505   -0.2329   -0.2827 H   0  0  0  0  0  0  0  0  0  0  0  0
    3.1037   -0.7673    1.7537 H   0  0  0  0  0  0  0  0  0  0  0  0
    2.8883    0.5474    3.6971 H   0  0  0  0  0  0  0  0  0  0  0  0
    1.6866    1.5200    3.0199 H   0  0  0  0  0  0  0  0  0  0  0  0
    3.0468    2.2538    1.0701 H   0  0  0  0  0  0  0  0  0  0  0  0
    4.3502    1.4449    1.9746 H   0  0  0  0  0  0  0  0  0  0  0  0
    2.9796    2.1030   -1.3434 H   0  0  0  0  0  0  0  0  0  0  0  0
    6.7341   -1.1409   -1.2706 H   0  0  0  0  0  0  0  0  0  0  0  0
   -0.2285   -1.1954   -1.3407 H   0  0  0  0  0  0  0  0  0  0  0  0
   -1.7767    1.2599   -0.4613 H   0  0  0  0  0  0  0  0  0  0  0  0
   -0.2678    1.0962   -1.4028 H   0  0  0  0  0  0  0  0  0  0  0  0
   -1.8295    0.7669   -2.1976 H   0  0  0  0  0  0  0  0  0  0  0  0
   -4.1509   -2.6079   -1.1497 H   0  0  0  0  0  0  0  0  0  0  0  0
  1  2  1  0
  2  3  1  0
  3  4  1  0
  4  5  1  0
  5  6  1  0
  6  7  1  0
  7  8  2  0
  7  9  1  0
  9 10  1  0
 10 11  1  0
 10 12  1  0
 12 13  1  0
 13 14  2  0
 14 15  1  0
 15 16  1  0
 15 17  2  0
 17 18  1  0
 17 19  1  0
 19 20  2  0
 20 21  1  0
  6 22  1  0
 22 23  1  0
 22 24  1  0
 24 25  2  0
 24 26  1  0
 26  3  1  0
 20 13  1  0
  1 27  1  0
  1 28  1  0
  1 29  1  0
  2 30  1  0
  2 31  1  0
  3 32  1  1
  4 33  1  0
  4 34  1  0
  5 35  1  0
  5 36  1  0
  9 37  1  0
  9 38  1  0
 10 39  1  1
 11 40  1  0
 11 41  1  0
 12 42  1  0
 12 43  1  0
 14 44  1  0
 19 45  1  0
 22 46  1  6
 23 47  1  0
 23 48  1  0
 23 49  1  0
 26 50  1  0
M  END
$$$$
