
     RDKit          3D

 55 57  0  0  0  0  0  0  0  0999 V2000
   -0.5330   -2.2247    0.6717 C   0  0  0  0  0  0  0  0  0  0  0  0
   -0.8704   -0.7400    0.3852 C   0  0  0  0  0  0  0  0  0  0  0  0
   -0.6813   -0.4469   -1.1248 C   0  0  0  0  0  0  0  0  0  0  0  0
    0.0715    0.1745    1.2232 C   0  0  0  0  0  0  0  0  0  0  0  0
    1.5392    0.0189    0.9233 C   0  0  0  0  0  0  0  0  0  0  0  0
    2.2183   -0.8316    1.5606 O   0  0  0  0  0  0  0  0  0  0  0  0
    2.1632    0.8342   -0.0766 N   0  0  0  0  0  0  0  0  0  0  0  0
    3.5537    0.6263   -0.4667 C   0  0  1  0  0  0  0  0  0  0  0  0
    4.2997    1.9190   -0.7829 C   0  0  0  0  0  0  0  0  0  0  0  0
    4.5474    1.1969    0.5387 C   0  0  2  0  0  0  0  0  0  0  0  0
    5.8730    0.4710    0.6871 C   0  0  0  0  0  0  0  0  0  0  0  0
    6.5115   -0.2138   -0.3690 C   0  0  0  0  0  0  0  0  0  0  0  0
    7.7298   -0.8642   -0.1571 C   0  0  0  0  0  0  0  0  0  0  0  0
    8.3320   -0.8458    1.1038 C   0  0  0  0  0  0  0  0  0  0  0  0
    9.8652   -1.6770    1.3287 Cl  0  0  0  0  0  0  0  0  0  0  0  0
    7.7075   -0.1689    2.1629 C   0  0  0  0  0  0  0  0  0  0  0  0
    8.4300   -0.1213    3.7655 Cl  0  0  0  0  0  0  0  0  0  0  0  0
    6.4871    0.4827    1.9502 C   0  0  0  0  0  0  0  0  0  0  0  0
   -2.2568   -0.4130    0.8113 N   0  0  0  0  0  0  0  0  0  0  0  0
   -3.3086   -1.3427    0.3619 C   0  0  0  0  0  0  0  0  0  0  0  0
   -4.6670   -0.7651    0.6494 C   0  0  0  0  0  0  0  0  0  0  0  0
   -5.1505   -0.9046    1.8057 O   0  0  0  0  0  0  0  0  0  0  0  0
   -5.3986   -0.0228   -0.3479 N   0  0  0  0  0  0  0  0  0  0  0  0
   -4.8434    0.3726   -1.6334 C   0  0  0  0  0  0  0  0  0  0  0  0
   -5.7910    1.4275   -2.1866 C   0  0  0  0  0  0  0  0  0  0  0  0
   -7.0955    1.2648   -1.4126 C   0  0  0  0  0  0  0  0  0  0  0  0
   -6.7220    0.5413   -0.1165 C   0  0  1  0  0  0  0  0  0  0  0  0
   -7.6957   -0.5184    0.1976 C   0  0  0  0  0  0  0  0  0  0  0  0
   -8.4603   -1.3512    0.4448 N   0  0  0  0  0  0  0  0  0  0  0  0
   -1.1444   -2.9054    0.0430 H   0  0  0  0  0  0  0  0  0  0  0  0
   -0.7146   -2.4636    1.7414 H   0  0  0  0  0  0  0  0  0  0  0  0
    0.5266   -2.4500    0.4315 H   0  0  0  0  0  0  0  0  0  0  0  0
   -0.8968    0.6203   -1.3462 H   0  0  0  0  0  0  0  0  0  0  0  0
    0.3579   -0.6701   -1.4450 H   0  0  0  0  0  0  0  0  0  0  0  0
   -1.3452   -1.0746   -1.7514 H   0  0  0  0  0  0  0  0  0  0  0  0
   -0.0916   -0.0279    2.3050 H   0  0  0  0  0  0  0  0  0  0  0  0
   -0.2072    1.2392    1.0630 H   0  0  0  0  0  0  0  0  0  0  0  0
    1.5846    1.5184   -0.6145 H   0  0  0  0  0  0  0  0  0  0  0  0
    3.8110   -0.2918   -1.0341 H   0  0  0  0  0  0  0  0  0  0  0  0
    3.6986    2.8480   -0.6828 H   0  0  0  0  0  0  0  0  0  0  0  0
    5.0858    1.8202   -1.5590 H   0  0  0  0  0  0  0  0  0  0  0  0
    4.1025    1.7022    1.4243 H   0  0  0  0  0  0  0  0  0  0  0  0
    6.0812   -0.2527   -1.3596 H   0  0  0  0  0  0  0  0  0  0  0  0
    8.2066   -1.3846   -0.9782 H   0  0  0  0  0  0  0  0  0  0  0  0
    6.0151    1.0007    2.7767 H   0  0  0  0  0  0  0  0  0  0  0  0
   -2.4903    0.5547    0.4832 H   0  0  0  0  0  0  0  0  0  0  0  0
   -3.2241   -2.2983    0.9219 H   0  0  0  0  0  0  0  0  0  0  0  0
   -3.2231   -1.5756   -0.7170 H   0  0  0  0  0  0  0  0  0  0  0  0
   -3.8260    0.8021   -1.5118 H   0  0  0  0  0  0  0  0  0  0  0  0
   -4.8047   -0.5090   -2.3089 H   0  0  0  0  0  0  0  0  0  0  0  0
   -5.3725    2.4406   -1.9962 H   0  0  0  0  0  0  0  0  0  0  0  0
   -5.9475    1.2978   -3.2796 H   0  0  0  0  0  0  0  0  0  0  0  0
   -7.5591    2.2529   -1.2004 H   0  0  0  0  0  0  0  0  0  0  0  0
   -7.8029    0.6643   -2.0291 H   0  0  0  0  0  0  0  0  0  0  0  0
   -6.6745    1.2647    0.7264 H   0  0  0  0  0  0  0  0  0  0  0  0
  1  2  1  0
  2  3  1  0
  2  4  1  0
  4  5  1  0
  5  6  2  0
  5  7  1  0
  7  8  1  0
  8  9  1  0
  9 10  1  0
 10 11  1  0
 11 12  2  0
 12 13  1  0
 13 14  2  0
 14 15  1  0
 14 16  1  0
 16 17  1  0
 16 18  2  0
  2 19  1  0
 19 20  1  0
 20 21  1  0
 21 22  2  0
 21 23  1  0
 23 24  1  0
 24 25  1  0
 25 26  1  0
 26 27  1  0
 27 28  1  0
 28 29  3  0
 10  8  1  0
 18 11  1  0
 27 23  1  0
  1 30  1  0
  1 31  1  0
  1 32  1  0
  3 33  1  0
  3 34  1  0
  3 35  1  0
  4 36  1  0
  4 37  1  0
  7 38  1  0
  8 39  1  6
  9 40  1  0
  9 41  1  0
 10 42  1  1
 12 43  1  0
 13 44  1  0
 18 45  1  0
 19 46  1  0
 20 47  1  0
 20 48  1  0
 24 49  1  0
 24 50  1  0
 25 51  1  0
 25 52  1  0
 26 53  1  0
 26 54  1  0
 27 55  1  1
M  END
$$$$
