
     RDKit          3D

 74 76  0  0  0  0  0  0  0  0999 V2000
   -4.9954    7.3660   -1.2201 C   0  0  0  0  0  0  0  0  0  0  0  0
   -4.0991    6.3275   -0.6286 C   0  0  0  0  0  0  0  0  0  0  0  0
   -3.5632    6.5405    0.4924 O   0  0  0  0  0  0  0  0  0  0  0  0
   -3.9326    5.0653   -1.2928 N   0  0  0  0  0  0  0  0  0  0  0  0
   -2.9625    4.0743   -0.9119 C   0  0  0  0  0  0  0  0  0  0  0  0
   -1.7008    4.4361   -0.4091 C   0  0  0  0  0  0  0  0  0  0  0  0
   -0.7683    3.4523   -0.0685 C   0  0  0  0  0  0  0  0  0  0  0  0
   -1.0685    2.0960   -0.2350 C   0  0  0  0  0  0  0  0  0  0  0  0
   -0.0922    1.1581    0.1287 O   0  0  0  0  0  0  0  0  0  0  0  0
   -0.2602   -0.5473   -0.0256 P   0  0  0  0  0  0  0  0  0  0  0  0
   -0.4563   -0.8711   -1.4898 O   0  0  0  0  0  0  0  0  0  0  0  0
   -1.6236   -1.0291    0.9195 O   0  0  0  0  0  0  0  0  0  0  0  0
   -2.4264   -2.1662    0.7290 C   0  0  0  0  0  0  0  0  0  0  0  0
   -3.4718   -2.3756    1.6362 C   0  0  0  0  0  0  0  0  0  0  0  0
   -4.3229   -3.4764    1.5078 C   0  0  0  0  0  0  0  0  0  0  0  0
   -4.1498   -4.3870    0.4522 C   0  0  0  0  0  0  0  0  0  0  0  0
   -4.9941   -5.5424    0.3092 N   0  0  0  0  0  0  0  0  0  0  0  0
   -6.3880   -5.5697    0.6527 C   0  0  0  0  0  0  0  0  0  0  0  0
   -7.1278   -6.8676    0.6538 C   0  0  0  0  0  0  0  0  0  0  0  0
   -7.0176   -4.5000    0.8731 O   0  0  0  0  0  0  0  0  0  0  0  0
   -3.0905   -4.1941   -0.4447 C   0  0  0  0  0  0  0  0  0  0  0  0
   -2.2410   -3.0912   -0.3175 C   0  0  0  0  0  0  0  0  0  0  0  0
    1.2892   -1.3049    0.5988 C   0  0  0  0  0  0  0  0  0  0  0  0
    1.2381   -2.8298    0.5948 C   0  0  0  0  0  0  0  0  0  0  0  0
    1.8762   -3.2537   -0.7249 C   0  0  0  0  0  0  0  0  0  0  0  0
    2.8004   -2.1056   -1.1154 C   0  0  0  0  0  0  0  0  0  0  0  0
    2.3875   -0.9763   -0.2993 N   0  0  0  0  0  0  0  0  0  0  0  0
    3.0215    0.3104   -0.3929 C   0  0  0  0  0  0  0  0  0  0  0  0
    3.3706    0.7340   -1.5280 O   0  0  0  0  0  0  0  0  0  0  0  0
    3.2319    1.1670    0.8410 C   0  0  1  0  0  0  0  0  0  0  0  0
    3.7148    0.3474    1.9568 N   0  0  0  0  0  0  0  0  0  0  0  0
    4.1242    2.4214    0.6038 C   0  0  0  0  0  0  0  0  0  0  0  0
    5.6517    2.2016    0.6404 C   0  0  0  0  0  0  0  0  0  0  0  0
    6.1775    1.3390   -0.5171 C   0  0  0  0  0  0  0  0  0  0  0  0
    7.7096    1.2957   -0.5615 C   0  0  0  0  0  0  0  0  0  0  0  0
    8.2439    0.5412    0.5698 N   0  0  0  0  0  0  0  0  0  0  0  0
   -2.3238    1.7325   -0.7595 C   0  0  0  0  0  0  0  0  0  0  0  0
   -3.2564    2.7165   -1.1008 C   0  0  0  0  0  0  0  0  0  0  0  0
   -6.0503    7.1302   -0.9685 H   0  0  0  0  0  0  0  0  0  0  0  0
   -4.8777    7.3830   -2.3239 H   0  0  0  0  0  0  0  0  0  0  0  0
   -4.7403    8.3701   -0.8199 H   0  0  0  0  0  0  0  0  0  0  0  0
   -4.6143    4.8213   -2.0468 H   0  0  0  0  0  0  0  0  0  0  0  0
   -1.4231    5.4761   -0.3026 H   0  0  0  0  0  0  0  0  0  0  0  0
    0.1993    3.7458    0.3194 H   0  0  0  0  0  0  0  0  0  0  0  0
   -3.6214   -1.6811    2.4534 H   0  0  0  0  0  0  0  0  0  0  0  0
   -5.0969   -3.6259    2.2485 H   0  0  0  0  0  0  0  0  0  0  0  0
   -4.5915   -6.3915   -0.1489 H   0  0  0  0  0  0  0  0  0  0  0  0
   -8.0462   -6.7884    1.2733 H   0  0  0  0  0  0  0  0  0  0  0  0
   -6.4844   -7.6693    1.0730 H   0  0  0  0  0  0  0  0  0  0  0  0
   -7.4110   -7.1322   -0.3861 H   0  0  0  0  0  0  0  0  0  0  0  0
   -2.9276   -4.8981   -1.2513 H   0  0  0  0  0  0  0  0  0  0  0  0
   -1.4409   -2.9917   -1.0308 H   0  0  0  0  0  0  0  0  0  0  0  0
    1.4844   -0.9415    1.6288 H   0  0  0  0  0  0  0  0  0  0  0  0
    1.8660   -3.2107    1.4306 H   0  0  0  0  0  0  0  0  0  0  0  0
    0.2207   -3.2442    0.7231 H   0  0  0  0  0  0  0  0  0  0  0  0
    1.0853   -3.3784   -1.4965 H   0  0  0  0  0  0  0  0  0  0  0  0
    2.4355   -4.2081   -0.6159 H   0  0  0  0  0  0  0  0  0  0  0  0
    2.6942   -1.8650   -2.1953 H   0  0  0  0  0  0  0  0  0  0  0  0
    3.8573   -2.3629   -0.8860 H   0  0  0  0  0  0  0  0  0  0  0  0
    2.2295    1.5506    1.1236 H   0  0  0  0  0  0  0  0  0  0  0  0
    3.8981    0.9607    2.7841 H   0  0  0  0  0  0  0  0  0  0  0  0
    4.6067   -0.1300    1.6934 H   0  0  0  0  0  0  0  0  0  0  0  0
    3.8867    3.1525    1.4077 H   0  0  0  0  0  0  0  0  0  0  0  0
    3.8404    2.9225   -0.3472 H   0  0  0  0  0  0  0  0  0  0  0  0
    6.1329    3.2023    0.5789 H   0  0  0  0  0  0  0  0  0  0  0  0
    5.9496    1.7653    1.6161 H   0  0  0  0  0  0  0  0  0  0  0  0
    5.8181    1.7658   -1.4785 H   0  0  0  0  0  0  0  0  0  0  0  0
    5.7949    0.3004   -0.4280 H   0  0  0  0  0  0  0  0  0  0  0  0
    8.1302    2.3264   -0.5736 H   0  0  0  0  0  0  0  0  0  0  0  0
    8.0149    0.7947   -1.5066 H   0  0  0  0  0  0  0  0  0  0  0  0
    9.2502    0.3385    0.3702 H   0  0  0  0  0  0  0  0  0  0  0  0
    8.2363    1.1606    1.4121 H   0  0  0  0  0  0  0  0  0  0  0  0
   -2.5934    0.6975   -0.9110 H   0  0  0  0  0  0  0  0  0  0  0  0
   -4.2164    2.4197   -1.5046 H   0  0  0  0  0  0  0  0  0  0  0  0
  1  2  1  0
  2  3  2  0
  2  4  1  0
  4  5  1  0
  5  6  2  0
  6  7  1  0
  7  8  2  0
  8  9  1  0
  9 10  1  0
 10 11  2  0
 10 12  1  0
 12 13  1  0
 13 14  2  0
 14 15  1  0
 15 16  2  0
 16 17  1  0
 17 18  1  0
 18 19  1  0
 18 20  2  0
 16 21  1  0
 21 22  2  0
 10 23  1  0
 23 24  1  0
 24 25  1  0
 25 26  1  0
 26 27  1  0
 27 28  1  0
 28 29  2  0
 28 30  1  0
 30 31  1  0
 30 32  1  0
 32 33  1  0
 33 34  1  0
 34 35  1  0
 35 36  1  0
  8 37  1  0
 37 38  2  0
 38  5  1  0
 22 13  1  0
 27 23  1  0
  1 39  1  0
  1 40  1  0
  1 41  1  0
  4 42  1  0
  6 43  1  0
  7 44  1  0
 14 45  1  0
 15 46  1  0
 17 47  1  0
 19 48  1  0
 19 49  1  0
 19 50  1  0
 21 51  1  0
 22 52  1  0
 23 53  1  0
 24 54  1  0
 24 55  1  0
 25 56  1  0
 25 57  1  0
 26 58  1  0
 26 59  1  0
 30 60  1  1
 31 61  1  0
 31 62  1  0
 32 63  1  0
 32 64  1  0
 33 65  1  0
 33 66  1  0
 34 67  1  0
 34 68  1  0
 35 69  1  0
 35 70  1  0
 36 71  1  0
 36 72  1  0
 37 73  1  0
 38 74  1  0
M  END
$$$$
