
     RDKit          3D

 48 49  0  0  0  0  0  0  0  0999 V2000
   -0.5092    0.2938   -1.6998 C   0  0  0  0  0  0  0  0  0  0  0  0
   -0.4183   -0.3510   -0.2962 C   0  0  0  0  0  0  0  0  0  0  0  0
   -0.6375    0.7288    0.7910 C   0  0  0  0  0  0  0  0  0  0  0  0
   -1.5163   -1.4509   -0.1717 C   0  0  0  0  0  0  0  0  0  0  0  0
   -2.8766   -0.9303   -0.3421 N   0  0  0  0  0  0  0  0  0  0  0  0
   -3.7495   -0.6531    0.7673 C   0  0  0  0  0  0  0  0  0  0  0  0
   -3.3088   -0.7407    1.9463 O   0  0  0  0  0  0  0  0  0  0  0  0
   -5.1569   -0.2404    0.5505 C   0  0  0  0  0  0  0  0  0  0  0  0
   -5.8223    0.5250    1.5266 C   0  0  0  0  0  0  0  0  0  0  0  0
   -7.1506    0.9178    1.3359 C   0  0  0  0  0  0  0  0  0  0  0  0
   -7.8315    0.5454    0.1752 C   0  0  0  0  0  0  0  0  0  0  0  0
   -7.1869   -0.2248   -0.7950 C   0  0  0  0  0  0  0  0  0  0  0  0
   -5.8581   -0.6198   -0.6103 C   0  0  0  0  0  0  0  0  0  0  0  0
    0.8977   -1.0262   -0.1350 N   0  0  0  0  0  0  0  0  0  0  0  0
    2.0687   -0.1381   -0.0160 C   0  0  0  0  0  0  0  0  0  0  0  0
    3.3460   -0.9158   -0.2003 C   0  0  0  0  0  0  0  0  0  0  0  0
    3.2967   -2.0920   -0.6551 O   0  0  0  0  0  0  0  0  0  0  0  0
    4.6276   -0.3252    0.0927 N   0  0  0  0  0  0  0  0  0  0  0  0
    5.8707   -1.0725   -0.0134 C   0  0  0  0  0  0  0  0  0  0  0  0
    6.9815   -0.0777    0.3039 C   0  0  1  0  0  0  0  0  0  0  0  0
    7.5620    0.3698   -0.8719 F   0  0  0  0  0  0  0  0  0  0  0  0
    6.2973    1.0880    1.0147 C   0  0  0  0  0  0  0  0  0  0  0  0
    4.8305    1.0311    0.5863 C   0  0  1  0  0  0  0  0  0  0  0  0
    4.5557    2.0043   -0.4837 C   0  0  0  0  0  0  0  0  0  0  0  0
    4.3387    2.7686   -1.3251 N   0  0  0  0  0  0  0  0  0  0  0  0
    0.2035    1.1336   -1.8181 H   0  0  0  0  0  0  0  0  0  0  0  0
   -0.2987   -0.4621   -2.4862 H   0  0  0  0  0  0  0  0  0  0  0  0
   -1.5156    0.7243   -1.8804 H   0  0  0  0  0  0  0  0  0  0  0  0
   -1.6438    1.1877    0.6986 H   0  0  0  0  0  0  0  0  0  0  0  0
   -0.5385    0.2842    1.8043 H   0  0  0  0  0  0  0  0  0  0  0  0
    0.0957    1.5562    0.6911 H   0  0  0  0  0  0  0  0  0  0  0  0
   -1.3402   -2.2302   -0.9454 H   0  0  0  0  0  0  0  0  0  0  0  0
   -1.4298   -1.9680    0.8091 H   0  0  0  0  0  0  0  0  0  0  0  0
   -3.2018   -0.7331   -1.3138 H   0  0  0  0  0  0  0  0  0  0  0  0
   -5.3117    0.8295    2.4319 H   0  0  0  0  0  0  0  0  0  0  0  0
   -7.6521    1.5119    2.0891 H   0  0  0  0  0  0  0  0  0  0  0  0
   -8.8602    0.8491    0.0299 H   0  0  0  0  0  0  0  0  0  0  0  0
   -7.7196   -0.5224   -1.6890 H   0  0  0  0  0  0  0  0  0  0  0  0
   -5.3957   -1.2415   -1.3649 H   0  0  0  0  0  0  0  0  0  0  0  0
    0.8770   -1.6171    0.7308 H   0  0  0  0  0  0  0  0  0  0  0  0
    2.0536    0.6561   -0.7854 H   0  0  0  0  0  0  0  0  0  0  0  0
    2.0803    0.3320    0.9904 H   0  0  0  0  0  0  0  0  0  0  0  0
    5.8700   -1.9007    0.7283 H   0  0  0  0  0  0  0  0  0  0  0  0
    5.9885   -1.4875   -1.0381 H   0  0  0  0  0  0  0  0  0  0  0  0
    7.7643   -0.5374    0.9455 H   0  0  0  0  0  0  0  0  0  0  0  0
    6.3607    0.9250    2.1135 H   0  0  0  0  0  0  0  0  0  0  0  0
    6.7879    2.0593    0.7800 H   0  0  0  0  0  0  0  0  0  0  0  0
    4.1756    1.2370    1.4595 H   0  0  0  0  0  0  0  0  0  0  0  0
  1  2  1  0
  2  3  1  0
  2  4  1  0
  4  5  1  0
  5  6  1  0
  6  7  2  0
  6  8  1  0
  8  9  2  0
  9 10  1  0
 10 11  2  0
 11 12  1  0
 12 13  2  0
  2 14  1  0
 14 15  1  0
 15 16  1  0
 16 17  2  0
 16 18  1  0
 18 19  1  0
 19 20  1  0
 20 21  1  0
 20 22  1  0
 22 23  1  0
 23 24  1  0
 24 25  3  0
 13  8  1  0
 23 18  1  0
  1 26  1  0
  1 27  1  0
  1 28  1  0
  3 29  1  0
  3 30  1  0
  3 31  1  0
  4 32  1  0
  4 33  1  0
  5 34  1  0
  9 35  1  0
 10 36  1  0
 11 37  1  0
 12 38  1  0
 13 39  1  0
 14 40  1  0
 15 41  1  0
 15 42  1  0
 19 43  1  0
 19 44  1  0
 20 45  1  1
 22 46  1  0
 22 47  1  0
 23 48  1  1
M  END
$$$$
