
     RDKit          3D

 48 48  0  0  0  0  0  0  0  0999 V2000
   -2.6093   -0.7995   -3.6434 C   0  0  0  0  0  0  0  0  0  0  0  0
   -1.4970   -1.5429   -3.6435 C   0  0  0  0  0  0  0  0  0  0  0  0
   -0.1806   -1.0400   -3.1017 C   0  0  0  0  0  0  0  0  0  0  0  0
    0.0775    0.2446   -3.6137 O   0  0  0  0  0  0  0  0  0  0  0  0
   -0.1736   -1.0345   -1.5552 C   0  0  0  0  0  0  0  0  0  0  0  0
    1.2253   -0.8318   -1.0276 C   0  0  0  0  0  0  0  0  0  0  0  0
    1.8235    0.3621   -1.0207 C   0  0  0  0  0  0  0  0  0  0  0  0
    3.1487    0.5140   -0.4842 C   0  0  0  0  0  0  0  0  0  0  0  0
    4.2595    0.6415   -0.0340 C   0  0  0  0  0  0  0  0  0  0  0  0
    5.5602    0.7905    0.4936 C   0  0  0  0  0  0  0  0  0  0  0  0
    6.6708    0.9176    0.9441 C   0  0  0  0  0  0  0  0  0  0  0  0
    7.9715    1.0664    1.4718 C   0  0  0  0  0  0  0  0  0  0  0  0
    9.0823    1.1934    1.9225 C   0  0  0  0  0  0  0  0  0  0  0  0
   10.4304    1.3477    2.4694 C   0  0  0  0  0  0  0  0  0  0  0  0
   -1.0174   -0.0015   -1.0589 O   0  0  0  0  0  0  0  0  0  0  0  0
   -2.1024   -0.5023   -0.2951 C   0  0  2  0  0  0  0  0  0  0  0  0
   -3.1238    0.4852   -0.3188 O   0  0  0  0  0  0  0  0  0  0  0  0
   -4.1556    0.1626    0.5952 C   0  0  2  0  0  0  0  0  0  0  0  0
   -5.3889    1.0129    0.2777 C   0  0  0  0  0  0  0  0  0  0  0  0
   -5.8478    0.7142   -1.0117 O   0  0  0  0  0  0  0  0  0  0  0  0
   -3.6703    0.4033    2.0483 C   0  0  1  0  0  0  0  0  0  0  0  0
   -4.3156   -0.5079    2.9019 O   0  0  0  0  0  0  0  0  0  0  0  0
   -2.1345    0.2377    2.1545 C   0  0  2  0  0  0  0  0  0  0  0  0
   -1.5176    1.4714    1.8817 O   0  0  0  0  0  0  0  0  0  0  0  0
   -1.6269   -0.8268    1.1582 C   0  0  1  0  0  0  0  0  0  0  0  0
   -2.1053   -2.0952    1.5298 O   0  0  0  0  0  0  0  0  0  0  0  0
   -2.6121    0.2090   -3.2423 H   0  0  0  0  0  0  0  0  0  0  0  0
   -3.5297   -1.2010   -4.0542 H   0  0  0  0  0  0  0  0  0  0  0  0
   -1.5351   -2.5376   -4.0782 H   0  0  0  0  0  0  0  0  0  0  0  0
    0.5997   -1.7591   -3.4511 H   0  0  0  0  0  0  0  0  0  0  0  0
    1.0509    0.2976   -3.8011 H   0  0  0  0  0  0  0  0  0  0  0  0
   -0.4749   -2.0573   -1.2205 H   0  0  0  0  0  0  0  0  0  0  0  0
    1.7404   -1.6887   -0.6066 H   0  0  0  0  0  0  0  0  0  0  0  0
    1.3185    1.2376   -1.4080 H   0  0  0  0  0  0  0  0  0  0  0  0
   10.9989    2.0742    1.8531 H   0  0  0  0  0  0  0  0  0  0  0  0
   10.3661    1.7188    3.5130 H   0  0  0  0  0  0  0  0  0  0  0  0
   10.9491    0.3670    2.4572 H   0  0  0  0  0  0  0  0  0  0  0  0
   -2.5239   -1.4193   -0.7757 H   0  0  0  0  0  0  0  0  0  0  0  0
   -4.4614   -0.9053    0.4741 H   0  0  0  0  0  0  0  0  0  0  0  0
   -5.1266    2.0934    0.3394 H   0  0  0  0  0  0  0  0  0  0  0  0
   -6.1915    0.7930    1.0174 H   0  0  0  0  0  0  0  0  0  0  0  0
   -6.6405    1.2920   -1.1624 H   0  0  0  0  0  0  0  0  0  0  0  0
   -3.9289    1.4435    2.3623 H   0  0  0  0  0  0  0  0  0  0  0  0
   -4.2336   -0.1483    3.8239 H   0  0  0  0  0  0  0  0  0  0  0  0
   -1.8721   -0.0726    3.1935 H   0  0  0  0  0  0  0  0  0  0  0  0
   -0.5813    1.4043    2.2058 H   0  0  0  0  0  0  0  0  0  0  0  0
   -0.5130   -0.8407    1.1961 H   0  0  0  0  0  0  0  0  0  0  0  0
   -1.5821   -2.3807    2.3241 H   0  0  0  0  0  0  0  0  0  0  0  0
  1  2  2  0
  2  3  1  0
  3  4  1  0
  3  5  1  0
  5  6  1  0
  6  7  2  0
  7  8  1  0
  8  9  3  0
  9 10  1  0
 10 11  3  0
 11 12  1  0
 12 13  3  0
 13 14  1  0
  5 15  1  0
 15 16  1  0
 16 17  1  0
 17 18  1  0
 18 19  1  0
 19 20  1  0
 18 21  1  0
 21 22  1  0
 21 23  1  0
 23 24  1  0
 23 25  1  0
 25 26  1  0
 25 16  1  0
  1 27  1  0
  1 28  1  0
  2 29  1  0
  3 30  1  0
  4 31  1  0
  5 32  1  0
  6 33  1  0
  7 34  1  0
 14 35  1  0
 14 36  1  0
 14 37  1  0
 16 38  1  6
 18 39  1  1
 19 40  1  0
 19 41  1  0
 20 42  1  0
 21 43  1  1
 22 44  1  0
 23 45  1  1
 24 46  1  0
 25 47  1  6
 26 48  1  0
M  END
$$$$
