
     RDKit          3D

 47 47  0  0  0  0  0  0  0  0999 V2000
    5.3626   -1.9818    1.2456 C   0  0  0  0  0  0  0  0  0  0  0  0
    4.9375   -0.5754    0.8402 C   0  0  0  0  0  0  0  0  0  0  0  0
    3.5467   -0.5409    0.5275 O   0  0  0  0  0  0  0  0  0  0  0  0
    3.0117   -1.0253   -0.6726 C   0  0  0  0  0  0  0  0  0  0  0  0
    3.7670   -1.5274   -1.5500 O   0  0  0  0  0  0  0  0  0  0  0  0
    1.5480   -1.0051   -0.8926 C   0  0  0  0  0  0  0  0  0  0  0  0
    0.9518   -2.1478   -1.4382 C   0  0  0  0  0  0  0  0  0  0  0  0
   -0.3923   -2.2252   -1.5808 N   0  0  0  0  0  0  0  0  0  0  0  0
   -1.2276   -1.2163   -1.2233 C   0  0  0  0  0  0  0  0  0  0  0  0
   -2.7095   -1.4381   -1.4086 C   0  0  0  0  0  0  0  0  0  0  0  0
   -3.3947   -1.5179   -0.1016 N   0  0  0  0  0  0  0  0  0  0  0  0
   -4.8447   -1.3459   -0.2809 C   0  0  0  0  0  0  0  0  0  0  0  0
   -3.1272   -2.8099    0.5541 C   0  0  0  0  0  0  0  0  0  0  0  0
   -0.6874   -0.0189   -0.6897 C   0  0  0  0  0  0  0  0  0  0  0  0
   -1.5097    1.0633   -0.3160 C   0  0  0  0  0  0  0  0  0  0  0  0
   -0.9572    2.2562    0.1791 C   0  0  0  0  0  0  0  0  0  0  0  0
   -1.7569    3.3439    0.5670 O   0  0  0  0  0  0  0  0  0  0  0  0
   -3.1802    3.3616    0.5184 C   0  0  0  0  0  0  0  0  0  0  0  0
    0.4306    2.3846    0.2881 C   0  0  0  0  0  0  0  0  0  0  0  0
    0.9482    3.5998    0.7665 O   0  0  0  0  0  0  0  0  0  0  0  0
    2.3338    3.8774    0.9434 C   0  0  0  0  0  0  0  0  0  0  0  0
    1.2618    1.3128   -0.0807 C   0  0  0  0  0  0  0  0  0  0  0  0
    0.7212    0.0935   -0.5398 C   0  0  0  0  0  0  0  0  0  0  0  0
    0.6878    0.0000    0.0000 Cl  0  0  0  0  0  0  0  0  0  0  0  0
    5.2278   -2.6869    0.3992 H   0  0  0  0  0  0  0  0  0  0  0  0
    6.4334   -1.9780    1.5391 H   0  0  0  0  0  0  0  0  0  0  0  0
    4.7540   -2.3274    2.1079 H   0  0  0  0  0  0  0  0  0  0  0  0
    5.5388   -0.2237   -0.0263 H   0  0  0  0  0  0  0  0  0  0  0  0
    5.1248    0.1128    1.6911 H   0  0  0  0  0  0  0  0  0  0  0  0
    1.5557   -3.0002   -1.7236 H   0  0  0  0  0  0  0  0  0  0  0  0
   -2.8894   -2.3622   -2.0052 H   0  0  0  0  0  0  0  0  0  0  0  0
   -3.1084   -0.5966   -2.0178 H   0  0  0  0  0  0  0  0  0  0  0  0
   -5.0601   -0.3407   -0.7031 H   0  0  0  0  0  0  0  0  0  0  0  0
   -5.3637   -1.4031    0.7002 H   0  0  0  0  0  0  0  0  0  0  0  0
   -5.2622   -2.1231   -0.9597 H   0  0  0  0  0  0  0  0  0  0  0  0
   -2.0385   -2.9333    0.7357 H   0  0  0  0  0  0  0  0  0  0  0  0
   -3.4912   -3.6614   -0.0633 H   0  0  0  0  0  0  0  0  0  0  0  0
   -3.6258   -2.8453    1.5466 H   0  0  0  0  0  0  0  0  0  0  0  0
   -2.5815    0.9891   -0.4116 H   0  0  0  0  0  0  0  0  0  0  0  0
   -3.5286    3.2286   -0.5276 H   0  0  0  0  0  0  0  0  0  0  0  0
   -3.5431    4.3414    0.8908 H   0  0  0  0  0  0  0  0  0  0  0  0
   -3.5949    2.5600    1.1656 H   0  0  0  0  0  0  0  0  0  0  0  0
    2.7784    3.1602    1.6655 H   0  0  0  0  0  0  0  0  0  0  0  0
    2.4487    4.9042    1.3469 H   0  0  0  0  0  0  0  0  0  0  0  0
    2.8628    3.8183   -0.0312 H   0  0  0  0  0  0  0  0  0  0  0  0
    2.3295    1.4500   -0.0337 H   0  0  0  0  0  0  0  0  0  0  0  0
   -0.6878    0.0000    0.0000 H   0  0  0  0  0  0  0  0  0  0  0  0
  1  2  1  0
  2  3  1  0
  3  4  1  0
  4  5  2  0
  4  6  1  0
  6  7  2  0
  7  8  1  0
  8  9  2  0
  9 10  1  0
 10 11  1  0
 11 12  1  0
 11 13  1  0
  9 14  1  0
 14 15  2  0
 15 16  1  0
 16 17  1  0
 17 18  1  0
 16 19  2  0
 19 20  1  0
 20 21  1  0
 19 22  1  0
 22 23  2  0
 23  6  1  0
 23 14  1  0
  1 25  1  0
  1 26  1  0
  1 27  1  0
  2 28  1  0
  2 29  1  0
  7 30  1  0
 10 31  1  0
 10 32  1  0
 12 33  1  0
 12 34  1  0
 12 35  1  0
 13 36  1  0
 13 37  1  0
 13 38  1  0
 15 39  1  0
 18 40  1  0
 18 41  1  0
 18 42  1  0
 21 43  1  0
 21 44  1  0
 21 45  1  0
 22 46  1  0
 24 47  1  0
M  END
$$$$
