
     RDKit          3D

 49 53  0  0  0  0  0  0  0  0999 V2000
   -3.3018   -2.3876   -0.1992 N   0  0  0  0  0  0  0  0  0  0  0  0
   -2.6136   -1.5826    0.8148 C   0  0  1  0  0  0  0  0  0  0  0  0
   -1.1805   -2.1148    1.0702 C   0  0  0  0  0  0  0  0  0  0  0  0
   -0.1844   -0.9892    1.4599 C   0  0  1  0  0  0  0  0  0  0  0  0
    0.5231   -0.4448    0.2688 N   0  0  0  0  0  0  0  0  0  0  0  0
    1.3375   -1.4621   -0.4496 C   0  0  0  0  0  0  0  0  0  0  0  0
    2.5842   -0.7692   -0.8257 C   0  0  0  0  0  0  0  0  0  0  0  0
    3.6375   -1.1952   -1.6265 C   0  0  0  0  0  0  0  0  0  0  0  0
    4.7020   -0.3603   -1.7936 N   0  0  0  0  0  0  0  0  0  0  0  0
    4.7465    0.8607   -1.1764 C   0  0  0  0  0  0  0  0  0  0  0  0
    5.9143    1.7700   -1.4007 C   0  0  0  0  0  0  0  0  0  0  0  0
    7.2634    1.1771   -1.0217 C   0  0  0  0  0  0  0  0  0  0  0  0
    6.6189    2.2250   -0.1312 C   0  0  0  0  0  0  0  0  0  0  0  0
    3.7033    1.2700   -0.3954 N   0  0  0  0  0  0  0  0  0  0  0  0
    2.6378    0.4459   -0.2372 C   0  0  0  0  0  0  0  0  0  0  0  0
    1.4463    0.6743    0.5970 C   0  0  0  0  0  0  0  0  0  0  0  0
   -0.9965    0.1165    2.1777 C   0  0  0  0  0  0  0  0  0  0  0  0
   -1.9161    0.7767    1.3204 O   0  0  0  0  0  0  0  0  0  0  0  0
   -2.5833   -0.0849    0.3982 C   0  0  2  0  0  0  0  0  0  0  0  0
   -3.9899    0.4327    0.1806 C   0  0  0  0  0  0  0  0  0  0  0  0
   -4.4876    0.5883   -1.1263 C   0  0  0  0  0  0  0  0  0  0  0  0
   -5.7927    1.0428   -1.3386 C   0  0  0  0  0  0  0  0  0  0  0  0
   -6.2589    1.1910   -2.6034 F   0  0  0  0  0  0  0  0  0  0  0  0
   -6.6164    1.3403   -0.2496 C   0  0  0  0  0  0  0  0  0  0  0  0
   -7.8827    1.7801   -0.4547 F   0  0  0  0  0  0  0  0  0  0  0  0
   -6.1369    1.1804    1.0527 C   0  0  0  0  0  0  0  0  0  0  0  0
   -4.8326    0.7258    1.2724 C   0  0  0  0  0  0  0  0  0  0  0  0
   -4.3955    0.5709    2.5480 F   0  0  0  0  0  0  0  0  0  0  0  0
   -3.3229   -3.3832    0.1212 H   0  0  0  0  0  0  0  0  0  0  0  0
   -2.7613   -2.3551   -1.0946 H   0  0  0  0  0  0  0  0  0  0  0  0
   -3.1873   -1.6644    1.7656 H   0  0  0  0  0  0  0  0  0  0  0  0
   -0.8197   -2.6881    0.1927 H   0  0  0  0  0  0  0  0  0  0  0  0
   -1.2302   -2.8480    1.9053 H   0  0  0  0  0  0  0  0  0  0  0  0
    0.5597   -1.4043    2.1782 H   0  0  0  0  0  0  0  0  0  0  0  0
    0.8021   -1.7982   -1.3628 H   0  0  0  0  0  0  0  0  0  0  0  0
    1.5922   -2.3333    0.1948 H   0  0  0  0  0  0  0  0  0  0  0  0
    3.6173   -2.1636   -2.1081 H   0  0  0  0  0  0  0  0  0  0  0  0
    5.9155    2.4896   -2.2465 H   0  0  0  0  0  0  0  0  0  0  0  0
    7.2484    0.1531   -0.5896 H   0  0  0  0  0  0  0  0  0  0  0  0
    8.1188    1.5594   -1.6177 H   0  0  0  0  0  0  0  0  0  0  0  0
    6.2250    1.8173    0.8251 H   0  0  0  0  0  0  0  0  0  0  0  0
    7.0934    3.2265   -0.2009 H   0  0  0  0  0  0  0  0  0  0  0  0
    1.7662    0.6635    1.6625 H   0  0  0  0  0  0  0  0  0  0  0  0
    0.9734    1.6453    0.3394 H   0  0  0  0  0  0  0  0  0  0  0  0
   -1.5453   -0.3162    3.0435 H   0  0  0  0  0  0  0  0  0  0  0  0
   -0.3170    0.8765    2.6130 H   0  0  0  0  0  0  0  0  0  0  0  0
   -2.0293   -0.0159   -0.5651 H   0  0  0  0  0  0  0  0  0  0  0  0
   -3.8662    0.3546   -1.9820 H   0  0  0  0  0  0  0  0  0  0  0  0
   -6.7784    1.4067    1.8948 H   0  0  0  0  0  0  0  0  0  0  0  0
  1  2  1  0
  2  3  1  0
  3  4  1  0
  4  5  1  0
  5  6  1  0
  6  7  1  0
  7  8  2  0
  8  9  1  0
  9 10  2  0
 10 11  1  0
 11 12  1  0
 12 13  1  0
 10 14  1  0
 14 15  2  0
 15 16  1  0
  4 17  1  0
 17 18  1  0
 18 19  1  0
 19 20  1  0
 20 21  2  0
 21 22  1  0
 22 23  1  0
 22 24  2  0
 24 25  1  0
 24 26  1  0
 26 27  2  0
 27 28  1  0
 19  2  1  0
 27 20  1  0
 16  5  1  0
 15  7  1  0
 13 11  1  0
  1 29  1  0
  1 30  1  0
  2 31  1  1
  3 32  1  0
  3 33  1  0
  4 34  1  1
  6 35  1  0
  6 36  1  0
  8 37  1  0
 11 38  1  0
 12 39  1  0
 12 40  1  0
 13 41  1  0
 13 42  1  0
 16 43  1  0
 16 44  1  0
 17 45  1  0
 17 46  1  0
 19 47  1  6
 21 48  1  0
 26 49  1  0
M  END
$$$$
