
     RDKit          3D

 62 65  0  0  0  0  0  0  0  0999 V2000
   -2.6535    4.9819    1.1542 C   0  0  0  0  0  0  0  0  0  0  0  0
   -1.9484    4.2456    0.1006 N   0  0  0  0  0  0  0  0  0  0  0  0
   -1.7674    4.8564   -1.2207 C   0  0  0  0  0  0  0  0  0  0  0  0
   -1.3571    2.9679    0.4248 C   0  0  0  0  0  0  0  0  0  0  0  0
   -1.0847    2.7122    1.6300 O   0  0  0  0  0  0  0  0  0  0  0  0
   -1.1047    1.9003   -0.6348 C   0  0  1  0  0  0  0  0  0  0  0  0
    0.2463    1.1412   -0.3942 C   0  0  1  0  0  0  0  0  0  0  0  0
    0.1899    0.0177    0.6648 C   0  0  0  0  0  0  0  0  0  0  0  0
    1.6004   -0.4898    1.0233 C   0  0  0  0  0  0  0  0  0  0  0  0
    2.5841   -0.4558   -0.1759 C   0  0  1  0  0  0  0  0  0  0  0  0
    3.6514   -1.5272   -0.0449 C   0  0  0  0  0  0  0  0  0  0  0  0
    3.3272   -2.9008   -0.1072 C   0  0  0  0  0  0  0  0  0  0  0  0
    4.3436   -3.8664    0.0241 C   0  0  0  0  0  0  0  0  0  0  0  0
    5.6756   -3.4728    0.2193 C   0  0  0  0  0  0  0  0  0  0  0  0
    5.9395   -2.1082    0.2777 C   0  0  0  0  0  0  0  0  0  0  0  0
    7.1412   -1.5335    0.4619 N   0  0  0  0  0  0  0  0  0  0  0  0
    6.8155   -0.2156    0.4368 C   0  0  0  0  0  0  0  0  0  0  0  0
    5.4927    0.0001    0.2484 N   0  0  0  0  0  0  0  0  0  0  0  0
    4.9617   -1.2035    0.1506 N   0  0  0  0  0  0  0  0  0  0  0  0
    1.8442   -0.5624   -1.5231 C   0  0  0  0  0  0  0  0  0  0  0  0
    0.8546    0.6050   -1.7226 C   0  0  0  0  0  0  0  0  0  0  0  0
   -2.3545    0.9877   -0.8811 C   0  0  2  0  0  0  0  0  0  0  0  0
   -3.4332    1.7663   -1.4950 N   0  0  0  0  0  0  0  0  0  0  0  0
   -2.8887    0.3128    0.3706 C   0  0  0  0  0  0  0  0  0  0  0  0
   -3.2936    1.0237    1.3302 O   0  0  0  0  0  0  0  0  0  0  0  0
   -3.0016   -1.1196    0.4677 N   0  0  0  0  0  0  0  0  0  0  0  0
   -2.9702   -2.0348   -0.6630 C   0  0  0  0  0  0  0  0  0  0  0  0
   -3.3660   -3.3934   -0.1002 C   0  0  0  0  0  0  0  0  0  0  0  0
   -3.1575   -3.2876    1.4093 C   0  0  0  0  0  0  0  0  0  0  0  0
   -1.9044   -3.7749    1.7444 F   0  0  0  0  0  0  0  0  0  0  0  0
   -4.1275   -3.9978    2.0963 F   0  0  0  0  0  0  0  0  0  0  0  0
   -3.2379   -1.7995    1.7293 C   0  0  0  0  0  0  0  0  0  0  0  0
   -3.1167    5.9135    0.7666 H   0  0  0  0  0  0  0  0  0  0  0  0
   -3.4626    4.3474    1.5742 H   0  0  0  0  0  0  0  0  0  0  0  0
   -1.9435    5.2527    1.9640 H   0  0  0  0  0  0  0  0  0  0  0  0
   -2.3532    4.3026   -1.9809 H   0  0  0  0  0  0  0  0  0  0  0  0
   -0.6915    4.8471   -1.4959 H   0  0  0  0  0  0  0  0  0  0  0  0
   -2.1071    5.9133   -1.2325 H   0  0  0  0  0  0  0  0  0  0  0  0
   -0.9378    2.4416   -1.5887 H   0  0  0  0  0  0  0  0  0  0  0  0
    0.9692    1.8991   -0.0117 H   0  0  0  0  0  0  0  0  0  0  0  0
   -0.3126    0.3567    1.5933 H   0  0  0  0  0  0  0  0  0  0  0  0
   -0.3858   -0.8379    0.2593 H   0  0  0  0  0  0  0  0  0  0  0  0
    1.4984   -1.5191    1.4313 H   0  0  0  0  0  0  0  0  0  0  0  0
    2.0167    0.1396    1.8403 H   0  0  0  0  0  0  0  0  0  0  0  0
    3.0777    0.5410   -0.1693 H   0  0  0  0  0  0  0  0  0  0  0  0
    2.3042   -3.2244   -0.2490 H   0  0  0  0  0  0  0  0  0  0  0  0
    4.0955   -4.9187   -0.0234 H   0  0  0  0  0  0  0  0  0  0  0  0
    6.4665   -4.2042    0.3230 H   0  0  0  0  0  0  0  0  0  0  0  0
    7.5385    0.5800    0.5554 H   0  0  0  0  0  0  0  0  0  0  0  0
    2.5771   -0.5659   -2.3597 H   0  0  0  0  0  0  0  0  0  0  0  0
    1.2802   -1.5199   -1.5666 H   0  0  0  0  0  0  0  0  0  0  0  0
    0.0596    0.2627   -2.4172 H   0  0  0  0  0  0  0  0  0  0  0  0
    1.3826    1.4418   -2.2311 H   0  0  0  0  0  0  0  0  0  0  0  0
   -2.0532    0.2088   -1.6094 H   0  0  0  0  0  0  0  0  0  0  0  0
   -3.1230    2.0634   -2.4488 H   0  0  0  0  0  0  0  0  0  0  0  0
   -4.2521    1.1342   -1.6545 H   0  0  0  0  0  0  0  0  0  0  0  0
   -1.9436   -2.0825   -1.0854 H   0  0  0  0  0  0  0  0  0  0  0  0
   -3.6909   -1.7117   -1.4454 H   0  0  0  0  0  0  0  0  0  0  0  0
   -4.4403   -3.5836   -0.3181 H   0  0  0  0  0  0  0  0  0  0  0  0
   -2.7563   -4.2106   -0.5434 H   0  0  0  0  0  0  0  0  0  0  0  0
   -2.4658   -1.5104    2.4754 H   0  0  0  0  0  0  0  0  0  0  0  0
   -4.2473   -1.5314    2.1107 H   0  0  0  0  0  0  0  0  0  0  0  0
  1  2  1  0
  2  3  1  0
  2  4  1  0
  4  5  2  0
  4  6  1  0
  6  7  1  0
  7  8  1  0
  8  9  1  0
  9 10  1  0
 10 11  1  0
 11 12  2  0
 12 13  1  0
 13 14  2  0
 14 15  1  0
 15 16  2  0
 16 17  1  0
 17 18  2  0
 18 19  1  0
 10 20  1  0
 20 21  1  0
  6 22  1  0
 22 23  1  0
 22 24  1  0
 24 25  2  0
 24 26  1  0
 26 27  1  0
 27 28  1  0
 28 29  1  0
 29 30  1  0
 29 31  1  0
 29 32  1  0
 21  7  1  0
 32 26  1  0
 19 11  1  0
 19 15  1  0
  1 33  1  0
  1 34  1  0
  1 35  1  0
  3 36  1  0
  3 37  1  0
  3 38  1  0
  6 39  1  6
  7 40  1  1
  8 41  1  0
  8 42  1  0
  9 43  1  0
  9 44  1  0
 10 45  1  6
 12 46  1  0
 13 47  1  0
 14 48  1  0
 17 49  1  0
 20 50  1  0
 20 51  1  0
 21 52  1  0
 21 53  1  0
 22 54  1  6
 23 55  1  0
 23 56  1  0
 27 57  1  0
 27 58  1  0
 28 59  1  0
 28 60  1  0
 32 61  1  0
 32 62  1  0
M  END
$$$$
