
     RDKit          3D

 46 48  0  0  0  0  0  0  0  0999 V2000
    0.4539    2.0344   -1.2506 C   0  0  0  0  0  0  0  0  0  0  0  0
    0.7001    0.7185   -0.5077 C   0  0  1  0  0  0  0  0  0  0  0  0
   -0.3813   -0.2303   -0.7822 N   0  0  0  0  0  0  0  0  0  0  0  0
   -0.6242   -1.3677    0.0595 C   0  0  0  0  0  0  0  0  0  0  0  0
    0.2601   -1.7475    0.8748 O   0  0  0  0  0  0  0  0  0  0  0  0
   -1.8951   -2.1210   -0.0392 C   0  0  0  0  0  0  0  0  0  0  0  0
   -1.8492   -3.5232   -0.0101 C   0  0  0  0  0  0  0  0  0  0  0  0
   -3.0224   -4.2602   -0.1671 C   0  0  0  0  0  0  0  0  0  0  0  0
   -4.2086   -3.6245   -0.3400 N   0  0  0  0  0  0  0  0  0  0  0  0
   -4.2975   -2.2693   -0.3560 C   0  0  0  0  0  0  0  0  0  0  0  0
   -3.1497   -1.4767   -0.1898 C   0  0  0  0  0  0  0  0  0  0  0  0
   -3.3028   -0.0033   -0.1192 C   0  0  0  0  0  0  0  0  0  0  0  0
   -3.9494    0.6916   -1.1555 C   0  0  0  0  0  0  0  0  0  0  0  0
   -4.0788    2.0827   -1.0977 C   0  0  0  0  0  0  0  0  0  0  0  0
   -3.5726    2.7888   -0.0032 C   0  0  0  0  0  0  0  0  0  0  0  0
   -2.9404    2.1047    1.0382 C   0  0  0  0  0  0  0  0  0  0  0  0
   -2.8093    0.7140    0.9851 C   0  0  0  0  0  0  0  0  0  0  0  0
    2.0226    0.1254   -0.9342 C   0  0  0  0  0  0  0  0  0  0  0  0
    2.1176   -0.3587   -2.0957 O   0  0  0  0  0  0  0  0  0  0  0  0
    3.1794    0.1189   -0.0716 N   0  0  0  0  0  0  0  0  0  0  0  0
    4.4483   -0.4566   -0.4908 C   0  0  0  0  0  0  0  0  0  0  0  0
    5.4156   -0.2097    0.6616 C   0  0  0  0  0  0  0  0  0  0  0  0
    6.2060    0.8947    0.3872 F   0  0  0  0  0  0  0  0  0  0  0  0
    6.2243   -1.3127    0.8784 F   0  0  0  0  0  0  0  0  0  0  0  0
    4.5370    0.0736    1.8778 C   0  0  0  0  0  0  0  0  0  0  0  0
    3.2058    0.5725    1.3141 C   0  0  1  0  0  0  0  0  0  0  0  0
    3.1308    2.0422    1.3657 C   0  0  0  0  0  0  0  0  0  0  0  0
    3.0713    3.1972    1.4060 N   0  0  0  0  0  0  0  0  0  0  0  0
    0.4224    1.8674   -2.3488 H   0  0  0  0  0  0  0  0  0  0  0  0
    1.2613    2.7616   -1.0201 H   0  0  0  0  0  0  0  0  0  0  0  0
   -0.5150    2.4728   -0.9294 H   0  0  0  0  0  0  0  0  0  0  0  0
    0.6884    0.9519    0.5759 H   0  0  0  0  0  0  0  0  0  0  0  0
   -1.0025   -0.0772   -1.6092 H   0  0  0  0  0  0  0  0  0  0  0  0
   -0.9071   -4.0452    0.1071 H   0  0  0  0  0  0  0  0  0  0  0  0
   -2.9886   -5.3415   -0.1581 H   0  0  0  0  0  0  0  0  0  0  0  0
   -5.2703   -1.8084   -0.4726 H   0  0  0  0  0  0  0  0  0  0  0  0
   -4.3371    0.1584   -2.0149 H   0  0  0  0  0  0  0  0  0  0  0  0
   -4.5693    2.6137   -1.9031 H   0  0  0  0  0  0  0  0  0  0  0  0
   -3.6717    3.8657    0.0386 H   0  0  0  0  0  0  0  0  0  0  0  0
   -2.5516    2.6522    1.8870 H   0  0  0  0  0  0  0  0  0  0  0  0
   -2.3224    0.1969    1.8027 H   0  0  0  0  0  0  0  0  0  0  0  0
    4.3183   -1.5466   -0.6680 H   0  0  0  0  0  0  0  0  0  0  0  0
    4.8073    0.0329   -1.4223 H   0  0  0  0  0  0  0  0  0  0  0  0
    5.0188    0.7956    2.5748 H   0  0  0  0  0  0  0  0  0  0  0  0
    4.3606   -0.8759    2.4307 H   0  0  0  0  0  0  0  0  0  0  0  0
    2.3670    0.1279    1.8915 H   0  0  0  0  0  0  0  0  0  0  0  0
  1  2  1  0
  2  3  1  0
  3  4  1  0
  4  5  2  0
  4  6  1  0
  6  7  2  0
  7  8  1  0
  8  9  2  0
  9 10  1  0
 10 11  2  0
 11 12  1  0
 12 13  2  0
 13 14  1  0
 14 15  2  0
 15 16  1  0
 16 17  2  0
  2 18  1  0
 18 19  2  0
 18 20  1  0
 20 21  1  0
 21 22  1  0
 22 23  1  0
 22 24  1  0
 22 25  1  0
 25 26  1  0
 26 27  1  0
 27 28  3  0
 11  6  1  0
 17 12  1  0
 26 20  1  0
  1 29  1  0
  1 30  1  0
  1 31  1  0
  2 32  1  1
  3 33  1  0
  7 34  1  0
  8 35  1  0
 10 36  1  0
 13 37  1  0
 14 38  1  0
 15 39  1  0
 16 40  1  0
 17 41  1  0
 21 42  1  0
 21 43  1  0
 25 44  1  0
 25 45  1  0
 26 46  1  1
M  END
$$$$
