
     RDKit          3D

 43 45  0  0  0  0  0  0  0  0999 V2000
   -1.1972   -1.3018    3.2172 N   0  0  0  0  0  0  0  0  0  0  0  0
   -1.6593   -0.6563    2.3753 C   0  0  0  0  0  0  0  0  0  0  0  0
   -2.2461    0.1644    1.3028 C   0  0  2  0  0  0  0  0  0  0  0  0
   -3.1835    1.2238    1.8813 C   0  0  0  0  0  0  0  0  0  0  0  0
   -4.5899    0.6546    1.7270 C   0  0  0  0  0  0  0  0  0  0  0  0
   -4.4991   -0.3572    0.5926 C   0  0  0  0  0  0  0  0  0  0  0  0
   -3.0843   -0.6618    0.4432 N   0  0  0  0  0  0  0  0  0  0  0  0
   -2.6039   -1.5874   -0.5540 C   0  0  0  0  0  0  0  0  0  0  0  0
   -3.4372   -2.1857   -1.2891 O   0  0  0  0  0  0  0  0  0  0  0  0
   -1.1267   -1.8155   -0.7964 C   0  0  1  0  0  0  0  0  0  0  0  0
   -0.8977   -3.2114   -1.1834 N   0  0  0  0  0  0  0  0  0  0  0  0
   -0.6446   -0.8607   -1.9054 C   0  0  0  0  0  0  0  0  0  0  0  0
    0.8415   -0.9525   -2.1328 C   0  0  0  0  0  0  0  0  0  0  0  0
    1.2683   -1.7080   -3.0478 O   0  0  0  0  0  0  0  0  0  0  0  0
    1.7802   -0.2219   -1.3235 N   0  0  0  0  0  0  0  0  0  0  0  0
    1.4211    0.6944   -0.2372 C   0  0  0  0  0  0  0  0  0  0  0  0
    2.7352    1.2054    0.2189 C   0  0  0  0  0  0  0  0  0  0  0  0
    2.9907    2.1201    1.2418 C   0  0  0  0  0  0  0  0  0  0  0  0
    4.3243    2.4653    1.5145 C   0  0  0  0  0  0  0  0  0  0  0  0
    5.3722    1.8942    0.7667 C   0  0  0  0  0  0  0  0  0  0  0  0
    5.0913    0.9749   -0.2572 C   0  0  0  0  0  0  0  0  0  0  0  0
    3.7585    0.6467   -0.5107 C   0  0  0  0  0  0  0  0  0  0  0  0
    3.2287   -0.2896   -1.5304 C   0  0  0  0  0  0  0  0  0  0  0  0
   -1.4428    0.6553    0.7160 H   0  0  0  0  0  0  0  0  0  0  0  0
   -3.1019    2.1529    1.2746 H   0  0  0  0  0  0  0  0  0  0  0  0
   -2.9615    1.4778    2.9421 H   0  0  0  0  0  0  0  0  0  0  0  0
   -5.3291    1.4538    1.5021 H   0  0  0  0  0  0  0  0  0  0  0  0
   -4.8837    0.1366    2.6665 H   0  0  0  0  0  0  0  0  0  0  0  0
   -5.0697   -1.2781    0.8416 H   0  0  0  0  0  0  0  0  0  0  0  0
   -4.8872    0.0852   -0.3508 H   0  0  0  0  0  0  0  0  0  0  0  0
   -0.5591   -1.6151    0.1348 H   0  0  0  0  0  0  0  0  0  0  0  0
   -1.2793   -3.8288   -0.4294 H   0  0  0  0  0  0  0  0  0  0  0  0
    0.1324   -3.3914   -1.1929 H   0  0  0  0  0  0  0  0  0  0  0  0
   -0.9121    0.1862   -1.6501 H   0  0  0  0  0  0  0  0  0  0  0  0
   -1.1730   -1.1018   -2.8545 H   0  0  0  0  0  0  0  0  0  0  0  0
    0.7936    1.5282   -0.6167 H   0  0  0  0  0  0  0  0  0  0  0  0
    0.9233    0.1465    0.5881 H   0  0  0  0  0  0  0  0  0  0  0  0
    2.1798    2.5535    1.8129 H   0  0  0  0  0  0  0  0  0  0  0  0
    4.5475    3.1725    2.3027 H   0  0  0  0  0  0  0  0  0  0  0  0
    6.3978    2.1643    0.9820 H   0  0  0  0  0  0  0  0  0  0  0  0
    5.8911    0.5312   -0.8360 H   0  0  0  0  0  0  0  0  0  0  0  0
    3.4921    0.0577   -2.5523 H   0  0  0  0  0  0  0  0  0  0  0  0
    3.5992   -1.3204   -1.3455 H   0  0  0  0  0  0  0  0  0  0  0  0
  1  2  3  0
  2  3  1  0
  3  4  1  0
  4  5  1  0
  5  6  1  0
  6  7  1  0
  7  8  1  0
  8  9  2  0
  8 10  1  0
 10 11  1  0
 10 12  1  0
 12 13  1  0
 13 14  2  0
 13 15  1  0
 15 16  1  0
 16 17  1  0
 17 18  2  0
 18 19  1  0
 19 20  2  0
 20 21  1  0
 21 22  2  0
 22 23  1  0
  7  3  1  0
 23 15  1  0
 22 17  1  0
  3 24  1  6
  4 25  1  0
  4 26  1  0
  5 27  1  0
  5 28  1  0
  6 29  1  0
  6 30  1  0
 10 31  1  1
 11 32  1  0
 11 33  1  0
 12 34  1  0
 12 35  1  0
 16 36  1  0
 16 37  1  0
 18 38  1  0
 19 39  1  0
 20 40  1  0
 21 41  1  0
 23 42  1  0
 23 43  1  0
M  END
$$$$
