
     RDKit          3D

 44 46  0  0  0  0  0  0  0  0999 V2000
   -3.4141    0.6460    3.3870 N   0  0  0  0  0  0  0  0  0  0  0  0
   -2.7647    0.4190    2.4565 C   0  0  0  0  0  0  0  0  0  0  0  0
   -1.9373    0.1310    1.2729 C   0  0  2  0  0  0  0  0  0  0  0  0
   -2.4662   -1.0935    0.5251 C   0  0  0  0  0  0  0  0  0  0  0  0
   -1.5385   -2.2483    0.8931 C   0  0  0  0  0  0  0  0  0  0  0  0
   -0.2618   -1.6118    1.4257 C   0  0  0  0  0  0  0  0  0  0  0  0
   -0.5844   -0.2178    1.6842 N   0  0  0  0  0  0  0  0  0  0  0  0
    0.3760    0.6945    2.2540 C   0  0  0  0  0  0  0  0  0  0  0  0
    1.4742    0.2474    2.6834 O   0  0  0  0  0  0  0  0  0  0  0  0
    0.1475    2.1803    2.2984 C   0  0  0  0  0  0  0  0  0  0  0  0
    0.8707    2.8154    1.2009 N   0  0  0  0  0  0  0  0  0  0  0  0
    0.2344    3.2118   -0.0204 C   0  0  0  0  0  0  0  0  0  0  0  0
   -1.0031    3.4493   -0.0519 O   0  0  0  0  0  0  0  0  0  0  0  0
    1.0437    3.3110   -1.2752 C   0  0  0  0  0  0  0  0  0  0  0  0
    1.5504    2.0226   -1.6206 O   0  0  0  0  0  0  0  0  0  0  0  0
    0.7690    0.9287   -2.0354 C   0  0  0  0  0  0  0  0  0  0  0  0
   -0.5303    1.1018   -2.5509 C   0  0  0  0  0  0  0  0  0  0  0  0
   -1.2765    0.0035   -2.9806 C   0  0  0  0  0  0  0  0  0  0  0  0
   -0.7520   -1.2850   -2.8883 C   0  0  0  0  0  0  0  0  0  0  0  0
    0.5307   -1.4865   -2.3629 C   0  0  0  0  0  0  0  0  0  0  0  0
    1.0518   -2.7844   -2.2459 C   0  0  0  0  0  0  0  0  0  0  0  0
    2.3264   -2.9840   -1.7116 C   0  0  0  0  0  0  0  0  0  0  0  0
    3.0908   -1.8934   -1.2930 C   0  0  0  0  0  0  0  0  0  0  0  0
    2.5864   -0.5951   -1.4048 C   0  0  0  0  0  0  0  0  0  0  0  0
    1.3030   -0.3740   -1.9391 C   0  0  0  0  0  0  0  0  0  0  0  0
   -1.9259    1.0102    0.5951 H   0  0  0  0  0  0  0  0  0  0  0  0
   -3.5248   -1.3354    0.7704 H   0  0  0  0  0  0  0  0  0  0  0  0
   -2.4036   -0.9100   -0.5674 H   0  0  0  0  0  0  0  0  0  0  0  0
   -1.3301   -2.8939    0.0121 H   0  0  0  0  0  0  0  0  0  0  0  0
   -2.0106   -2.8624    1.6912 H   0  0  0  0  0  0  0  0  0  0  0  0
    0.0620   -2.1140    2.3630 H   0  0  0  0  0  0  0  0  0  0  0  0
    0.5490   -1.6731    0.6694 H   0  0  0  0  0  0  0  0  0  0  0  0
    0.5390    2.5756    3.2600 H   0  0  0  0  0  0  0  0  0  0  0  0
   -0.9299    2.4369    2.2674 H   0  0  0  0  0  0  0  0  0  0  0  0
    1.9155    2.7873    1.2285 H   0  0  0  0  0  0  0  0  0  0  0  0
    1.9019    3.9898   -1.0896 H   0  0  0  0  0  0  0  0  0  0  0  0
    0.4557    3.7451   -2.1111 H   0  0  0  0  0  0  0  0  0  0  0  0
   -0.9716    2.0835   -2.6394 H   0  0  0  0  0  0  0  0  0  0  0  0
   -2.2713    0.1517   -3.3804 H   0  0  0  0  0  0  0  0  0  0  0  0
   -1.3532   -2.1244   -3.2169 H   0  0  0  0  0  0  0  0  0  0  0  0
    0.4719   -3.6433   -2.5620 H   0  0  0  0  0  0  0  0  0  0  0  0
    2.7224   -3.9871   -1.6203 H   0  0  0  0  0  0  0  0  0  0  0  0
    4.0772   -2.0548   -0.8776 H   0  0  0  0  0  0  0  0  0  0  0  0
    3.2001    0.2298   -1.0649 H   0  0  0  0  0  0  0  0  0  0  0  0
  1  2  3  0
  2  3  1  0
  3  4  1  0
  4  5  1  0
  5  6  1  0
  6  7  1  0
  7  8  1  0
  8  9  2  0
  8 10  1  0
 10 11  1  0
 11 12  1  0
 12 13  2  0
 12 14  1  0
 14 15  1  0
 15 16  1  0
 16 17  2  0
 17 18  1  0
 18 19  2  0
 19 20  1  0
 20 21  2  0
 21 22  1  0
 22 23  2  0
 23 24  1  0
 24 25  2  0
  7  3  1  0
 25 16  1  0
 25 20  1  0
  3 26  1  6
  4 27  1  0
  4 28  1  0
  5 29  1  0
  5 30  1  0
  6 31  1  0
  6 32  1  0
 10 33  1  0
 10 34  1  0
 11 35  1  0
 14 36  1  0
 14 37  1  0
 17 38  1  0
 18 39  1  0
 19 40  1  0
 21 41  1  0
 22 42  1  0
 23 43  1  0
 24 44  1  0
M  END
$$$$
