
     RDKit          3D

 51 54  0  0  0  0  0  0  0  0999 V2000
   -3.7666   -2.3602    0.2509 N   0  0  0  0  0  0  0  0  0  0  0  0
   -3.1917   -1.2986   -0.5833 C   0  0  1  0  0  0  0  0  0  0  0  0
   -2.0473   -1.8682   -1.4524 C   0  0  0  0  0  0  0  0  0  0  0  0
   -0.8130   -2.1668   -0.6402 C   0  0  0  0  0  0  0  0  0  0  0  0
   -0.6620   -3.3438   -0.2106 O   0  0  0  0  0  0  0  0  0  0  0  0
    0.1917   -1.1645   -0.3464 N   0  0  0  0  0  0  0  0  0  0  0  0
   -0.0958    0.2863   -0.4525 C   0  0  0  0  0  0  0  0  0  0  0  0
    1.0886    1.0464   -1.0722 C   0  0  0  0  0  0  0  0  0  0  0  0
    2.3571    0.6073   -0.4235 C   0  0  0  0  0  0  0  0  0  0  0  0
    3.5325    1.2502   -0.4387 N   0  0  0  0  0  0  0  0  0  0  0  0
    4.3874    0.4096    0.1950 C   0  0  0  0  0  0  0  0  0  0  0  0
    5.8266    0.6915    0.4264 C   0  0  0  0  0  0  0  0  0  0  0  0
    6.3842    1.9523    0.1356 C   0  0  0  0  0  0  0  0  0  0  0  0
    7.7426    2.1957    0.3629 C   0  0  0  0  0  0  0  0  0  0  0  0
    8.5589    1.1896    0.8828 C   0  0  0  0  0  0  0  0  0  0  0  0
    8.0184   -0.0628    1.1790 C   0  0  0  0  0  0  0  0  0  0  0  0
    6.6611   -0.3124    0.9544 C   0  0  0  0  0  0  0  0  0  0  0  0
    3.7926   -0.7448    0.5906 N   0  0  0  0  0  0  0  0  0  0  0  0
    2.5188   -0.6017    0.1814 C   0  0  0  0  0  0  0  0  0  0  0  0
    1.4178   -1.5980    0.3590 C   0  0  0  0  0  0  0  0  0  0  0  0
   -4.2793   -0.6893   -1.4942 C   0  0  0  0  0  0  0  0  0  0  0  0
   -5.3158    0.0750   -0.7061 C   0  0  0  0  0  0  0  0  0  0  0  0
   -5.0172    1.3634   -0.2299 C   0  0  0  0  0  0  0  0  0  0  0  0
   -5.9588    2.0762    0.5186 C   0  0  0  0  0  0  0  0  0  0  0  0
   -5.6630    3.3190    0.9726 F   0  0  0  0  0  0  0  0  0  0  0  0
   -7.2033    1.5075    0.8013 C   0  0  0  0  0  0  0  0  0  0  0  0
   -7.5076    0.2250    0.3381 C   0  0  0  0  0  0  0  0  0  0  0  0
   -6.5701   -0.4936   -0.4114 C   0  0  0  0  0  0  0  0  0  0  0  0
   -6.8841   -1.7423   -0.8407 F   0  0  0  0  0  0  0  0  0  0  0  0
   -4.4732   -1.9357    0.8937 H   0  0  0  0  0  0  0  0  0  0  0  0
   -3.0206   -2.7329    0.8809 H   0  0  0  0  0  0  0  0  0  0  0  0
   -2.7892   -0.4957    0.0746 H   0  0  0  0  0  0  0  0  0  0  0  0
   -1.7793   -1.1753   -2.2776 H   0  0  0  0  0  0  0  0  0  0  0  0
   -2.3966   -2.8023   -1.9459 H   0  0  0  0  0  0  0  0  0  0  0  0
   -0.2975    0.6861    0.5651 H   0  0  0  0  0  0  0  0  0  0  0  0
   -0.9875    0.4997   -1.0710 H   0  0  0  0  0  0  0  0  0  0  0  0
    0.9504    2.1399   -0.9337 H   0  0  0  0  0  0  0  0  0  0  0  0
    1.1456    0.8241   -2.1592 H   0  0  0  0  0  0  0  0  0  0  0  0
    3.7248    2.1794   -0.8720 H   0  0  0  0  0  0  0  0  0  0  0  0
    5.7807    2.7576   -0.2572 H   0  0  0  0  0  0  0  0  0  0  0  0
    8.1622    3.1677    0.1375 H   0  0  0  0  0  0  0  0  0  0  0  0
    9.6097    1.3811    1.0578 H   0  0  0  0  0  0  0  0  0  0  0  0
    8.6516   -0.8422    1.5832 H   0  0  0  0  0  0  0  0  0  0  0  0
    6.2672   -1.2928    1.1907 H   0  0  0  0  0  0  0  0  0  0  0  0
    1.2000   -1.7161    1.4416 H   0  0  0  0  0  0  0  0  0  0  0  0
    1.7708   -2.5702   -0.0480 H   0  0  0  0  0  0  0  0  0  0  0  0
   -4.7549   -1.4923   -2.0988 H   0  0  0  0  0  0  0  0  0  0  0  0
   -3.8100    0.0143   -2.2169 H   0  0  0  0  0  0  0  0  0  0  0  0
   -4.0538    1.8128   -0.4383 H   0  0  0  0  0  0  0  0  0  0  0  0
   -7.9319    2.0588    1.3817 H   0  0  0  0  0  0  0  0  0  0  0  0
   -8.4712   -0.2138    0.5631 H   0  0  0  0  0  0  0  0  0  0  0  0
  1  2  1  0
  2  3  1  0
  3  4  1  0
  4  5  2  0
  4  6  1  0
  6  7  1  0
  7  8  1  0
  8  9  1  0
  9 10  1  0
 10 11  1  0
 11 12  1  0
 12 13  2  0
 13 14  1  0
 14 15  2  0
 15 16  1  0
 16 17  2  0
 11 18  2  0
 18 19  1  0
 19 20  1  0
  2 21  1  0
 21 22  1  0
 22 23  2  0
 23 24  1  0
 24 25  1  0
 24 26  2  0
 26 27  1  0
 27 28  2  0
 28 29  1  0
 20  6  1  0
 28 22  1  0
 19  9  2  0
 17 12  1  0
  1 30  1  0
  1 31  1  0
  2 32  1  1
  3 33  1  0
  3 34  1  0
  7 35  1  0
  7 36  1  0
  8 37  1  0
  8 38  1  0
 10 39  1  0
 13 40  1  0
 14 41  1  0
 15 42  1  0
 16 43  1  0
 17 44  1  0
 20 45  1  0
 20 46  1  0
 21 47  1  0
 21 48  1  0
 23 49  1  0
 26 50  1  0
 27 51  1  0
M  END
$$$$
