
     RDKit          3D

 52 55  0  0  0  0  0  0  0  0999 V2000
   -5.0672    2.4681   -2.1836 C   0  0  0  0  0  0  0  0  0  0  0  0
   -4.1075    1.4071   -1.8792 C   0  0  0  0  0  0  0  0  0  0  0  0
   -3.3165    0.5335   -1.6267 C   0  0  0  0  0  0  0  0  0  0  0  0
   -2.3546   -0.5268   -1.3144 C   0  0  0  0  0  0  0  0  0  0  0  0
   -1.9531   -0.4384    0.0923 N   0  0  0  0  0  0  0  0  0  0  0  0
   -2.5443   -1.0297    1.1687 C   0  0  0  0  0  0  0  0  0  0  0  0
   -3.7063   -1.8676    1.0825 N   0  0  0  0  0  0  0  0  0  0  0  0
   -4.2641   -2.5048    2.2757 C   0  0  0  0  0  0  0  0  0  0  0  0
   -5.5140   -3.3232    1.9399 C   0  0  0  0  0  0  0  0  0  0  0  0
   -6.5771   -2.4568    1.4386 N   0  0  0  0  0  0  0  0  0  0  0  0
   -1.9573   -0.7167    2.3540 N   0  0  0  0  0  0  0  0  0  0  0  0
   -0.9716    0.1179    1.9829 C   0  0  0  0  0  0  0  0  0  0  0  0
   -0.0581    0.7661    2.7958 C   0  0  0  0  0  0  0  0  0  0  0  0
    0.8399    1.6007    2.1986 N   0  0  0  0  0  0  0  0  0  0  0  0
    0.8506    1.8162    0.8713 N   0  0  0  0  0  0  0  0  0  0  0  0
    1.8738    2.7118    0.3245 C   0  0  0  0  0  0  0  0  0  0  0  0
    3.0390    1.9137   -0.1685 C   0  0  0  0  0  0  0  0  0  0  0  0
    3.9733    1.4648    0.7096 N   0  0  0  0  0  0  0  0  0  0  0  0
    5.0252    0.7016    0.3087 C   0  0  0  0  0  0  0  0  0  0  0  0
    6.0158    0.2505    1.3423 C   0  0  0  0  0  0  0  0  0  0  0  0
    5.1470    0.3558   -1.0549 C   0  0  0  0  0  0  0  0  0  0  0  0
    6.2024   -0.4322   -1.5560 C   0  0  0  0  0  0  0  0  0  0  0  0
    6.2617   -0.7428   -2.9182 C   0  0  0  0  0  0  0  0  0  0  0  0
    5.2760   -0.2755   -3.7909 C   0  0  0  0  0  0  0  0  0  0  0  0
    4.2244    0.5065   -3.3072 C   0  0  0  0  0  0  0  0  0  0  0  0
    4.1552    0.8252   -1.9463 C   0  0  0  0  0  0  0  0  0  0  0  0
    3.1301    1.5843   -1.4825 N   0  0  0  0  0  0  0  0  0  0  0  0
   -0.0490    1.1761    0.0477 C   0  0  0  0  0  0  0  0  0  0  0  0
   -0.0462    1.3773   -1.1969 O   0  0  0  0  0  0  0  0  0  0  0  0
   -0.9673    0.3033    0.6382 C   0  0  0  0  0  0  0  0  0  0  0  0
   -5.2910    2.4639   -3.2702 H   0  0  0  0  0  0  0  0  0  0  0  0
   -4.6359    3.4497   -1.8985 H   0  0  0  0  0  0  0  0  0  0  0  0
   -6.0027    2.2954   -1.6127 H   0  0  0  0  0  0  0  0  0  0  0  0
   -1.4735   -0.4395   -1.9806 H   0  0  0  0  0  0  0  0  0  0  0  0
   -2.8090   -1.5144   -1.5313 H   0  0  0  0  0  0  0  0  0  0  0  0
   -4.1751   -2.0064    0.1603 H   0  0  0  0  0  0  0  0  0  0  0  0
   -3.5010   -3.1811    2.7178 H   0  0  0  0  0  0  0  0  0  0  0  0
   -4.5214   -1.7278    3.0282 H   0  0  0  0  0  0  0  0  0  0  0  0
   -5.2599   -4.0847    1.1701 H   0  0  0  0  0  0  0  0  0  0  0  0
   -5.8615   -3.8560    2.8530 H   0  0  0  0  0  0  0  0  0  0  0  0
   -6.9177   -1.8648    2.2310 H   0  0  0  0  0  0  0  0  0  0  0  0
   -7.3785   -3.0671    1.1582 H   0  0  0  0  0  0  0  0  0  0  0  0
   -0.0522    0.6219    3.8679 H   0  0  0  0  0  0  0  0  0  0  0  0
    1.4530    3.3301   -0.4987 H   0  0  0  0  0  0  0  0  0  0  0  0
    2.2202    3.4185    1.1104 H   0  0  0  0  0  0  0  0  0  0  0  0
    5.7325    0.6312    2.3467 H   0  0  0  0  0  0  0  0  0  0  0  0
    7.0257    0.6393    1.0938 H   0  0  0  0  0  0  0  0  0  0  0  0
    6.0407   -0.8587    1.3838 H   0  0  0  0  0  0  0  0  0  0  0  0
    6.9810   -0.8109   -0.9073 H   0  0  0  0  0  0  0  0  0  0  0  0
    7.0743   -1.3485   -3.2983 H   0  0  0  0  0  0  0  0  0  0  0  0
    5.3271   -0.5200   -4.8441 H   0  0  0  0  0  0  0  0  0  0  0  0
    3.4645    0.8640   -3.9913 H   0  0  0  0  0  0  0  0  0  0  0  0
  1  2  1  0
  2  3  3  0
  3  4  1  0
  4  5  1  0
  5  6  1  0
  6  7  1  0
  7  8  1  0
  8  9  1  0
  9 10  1  0
  6 11  2  0
 11 12  1  0
 12 13  1  0
 13 14  2  0
 14 15  1  0
 15 16  1  0
 16 17  1  0
 17 18  2  0
 18 19  1  0
 19 20  1  0
 19 21  2  0
 21 22  1  0
 22 23  2  0
 23 24  1  0
 24 25  2  0
 25 26  1  0
 26 27  2  0
 15 28  1  0
 28 29  2  0
 28 30  1  0
 30  5  1  0
 30 12  2  0
 27 17  1  0
 26 21  1  0
  1 31  1  0
  1 32  1  0
  1 33  1  0
  4 34  1  0
  4 35  1  0
  7 36  1  0
  8 37  1  0
  8 38  1  0
  9 39  1  0
  9 40  1  0
 10 41  1  0
 10 42  1  0
 13 43  1  0
 16 44  1  0
 16 45  1  0
 20 46  1  0
 20 47  1  0
 20 48  1  0
 22 49  1  0
 23 50  1  0
 24 51  1  0
 25 52  1  0
M  END
$$$$
