
     RDKit          3D

 38 39  0  0  0  0  0  0  0  0999 V2000
   -3.5314   -2.9444   -2.2013 N   0  0  0  0  0  0  0  0  0  0  0  0
   -3.8532   -2.2050   -1.3712 C   0  0  0  0  0  0  0  0  0  0  0  0
   -4.2619   -1.2641   -0.3140 C   0  0  2  0  0  0  0  0  0  0  0  0
   -4.7375    0.0620   -0.9124 C   0  0  0  0  0  0  0  0  0  0  0  0
   -4.1105    1.1550   -0.0516 C   0  0  0  0  0  0  0  0  0  0  0  0
   -2.9208    0.5094    0.6455 C   0  0  0  0  0  0  0  0  0  0  0  0
   -3.1333   -0.9259    0.5426 N   0  0  0  0  0  0  0  0  0  0  0  0
   -2.3908   -1.8998    1.3035 C   0  0  0  0  0  0  0  0  0  0  0  0
   -2.7756   -3.1003    1.3307 O   0  0  0  0  0  0  0  0  0  0  0  0
   -1.1419   -1.5200    2.0486 C   0  0  0  0  0  0  0  0  0  0  0  0
   -0.0941   -1.1003    1.1192 N   0  0  0  0  0  0  0  0  0  0  0  0
    1.1448   -0.5499    1.5912 C   0  0  0  0  0  0  0  0  0  0  0  0
    1.4235   -0.6105    2.8204 O   0  0  0  0  0  0  0  0  0  0  0  0
    2.1093    0.0774    0.6561 C   0  0  0  0  0  0  0  0  0  0  0  0
    1.6834    0.6258   -0.5666 C   0  0  0  0  0  0  0  0  0  0  0  0
    2.6031    1.2209   -1.4347 C   0  0  0  0  0  0  0  0  0  0  0  0
    3.9600    1.2877   -1.1013 C   0  0  0  0  0  0  0  0  0  0  0  0
    4.8377    1.8957   -2.0135 O   0  0  0  0  0  0  0  0  0  0  0  0
    6.2436    2.0465   -1.8287 C   0  0  0  0  0  0  0  0  0  0  0  0
    6.7742    2.6880   -2.9311 F   0  0  0  0  0  0  0  0  0  0  0  0
    6.8438    0.8064   -1.7029 F   0  0  0  0  0  0  0  0  0  0  0  0
    6.4976    2.8101   -0.7035 F   0  0  0  0  0  0  0  0  0  0  0  0
    4.3894    0.7504    0.1265 C   0  0  0  0  0  0  0  0  0  0  0  0
    3.4708    0.1557    0.9967 C   0  0  0  0  0  0  0  0  0  0  0  0
   -5.0690   -1.7208    0.2991 H   0  0  0  0  0  0  0  0  0  0  0  0
   -5.8471    0.1317   -0.8992 H   0  0  0  0  0  0  0  0  0  0  0  0
   -4.3853    0.1891   -1.9616 H   0  0  0  0  0  0  0  0  0  0  0  0
   -3.7946    2.0254   -0.6669 H   0  0  0  0  0  0  0  0  0  0  0  0
   -4.8482    1.4955    0.7082 H   0  0  0  0  0  0  0  0  0  0  0  0
   -2.8869    0.8271    1.7098 H   0  0  0  0  0  0  0  0  0  0  0  0
   -1.9729    0.7851    0.1354 H   0  0  0  0  0  0  0  0  0  0  0  0
   -1.3737   -0.6926    2.7518 H   0  0  0  0  0  0  0  0  0  0  0  0
   -0.7767   -2.3836    2.6457 H   0  0  0  0  0  0  0  0  0  0  0  0
   -0.2293   -1.2518    0.0939 H   0  0  0  0  0  0  0  0  0  0  0  0
    0.6386    0.6205   -0.8474 H   0  0  0  0  0  0  0  0  0  0  0  0
    2.2576    1.6396   -2.3715 H   0  0  0  0  0  0  0  0  0  0  0  0
    5.4286    0.7851    0.4210 H   0  0  0  0  0  0  0  0  0  0  0  0
    3.8285   -0.2535    1.9335 H   0  0  0  0  0  0  0  0  0  0  0  0
  1  2  3  0
  2  3  1  0
  3  4  1  0
  4  5  1  0
  5  6  1  0
  6  7  1  0
  7  8  1  0
  8  9  2  0
  8 10  1  0
 10 11  1  0
 11 12  1  0
 12 13  2  0
 12 14  1  0
 14 15  2  0
 15 16  1  0
 16 17  2  0
 17 18  1  0
 18 19  1  0
 19 20  1  0
 19 21  1  0
 19 22  1  0
 17 23  1  0
 23 24  2  0
  7  3  1  0
 24 14  1  0
  3 25  1  1
  4 26  1  0
  4 27  1  0
  5 28  1  0
  5 29  1  0
  6 30  1  0
  6 31  1  0
 10 32  1  0
 10 33  1  0
 11 34  1  0
 15 35  1  0
 16 36  1  0
 23 37  1  0
 24 38  1  0
M  END
$$$$
