
     RDKit          3D

 54 55  0  0  0  0  0  0  0  0999 V2000
    0.5166   -3.3267   -0.4015 C   0  0  0  0  0  0  0  0  0  0  0  0
    1.3832   -2.1816    0.1495 C   0  0  0  0  0  0  0  0  0  0  0  0
    1.0813   -1.9633    1.6430 C   0  0  0  0  0  0  0  0  0  0  0  0
    1.2943   -0.8864   -0.7434 C   0  0  1  0  0  0  0  0  0  0  0  0
    0.2873    0.2129   -0.2916 C   0  0  0  0  0  0  0  0  0  0  0  0
   -1.2139   -0.1449   -0.4687 C   0  0  2  0  0  0  0  0  0  0  0  0
   -1.5741   -0.3500   -1.8742 N   0  0  0  0  0  0  0  0  0  0  0  0
   -2.1144    0.9335    0.1018 C   0  0  0  0  0  0  0  0  0  0  0  0
   -1.6778    2.1157    0.1799 O   0  0  0  0  0  0  0  0  0  0  0  0
   -3.4847    0.6535    0.4777 N   0  0  0  0  0  0  0  0  0  0  0  0
   -4.4054    1.7575    0.7968 C   0  0  0  0  0  0  0  0  0  0  0  0
   -5.7657    1.5412    0.1173 C   0  0  0  0  0  0  0  0  0  0  0  0
   -6.2901    0.0922    0.2226 C   0  0  0  0  0  0  0  0  0  0  0  0
   -5.4093   -0.8055    1.0970 C   0  0  0  0  0  0  0  0  0  0  0  0
   -3.9473   -0.7366    0.6399 C   0  0  0  0  0  0  0  0  0  0  0  0
    2.6246   -0.2880   -0.9958 N   0  0  0  0  0  0  0  0  0  0  0  0
    3.3460    0.1549    0.2060 C   0  0  0  0  0  0  0  0  0  0  0  0
    4.5165    1.0043   -0.2033 C   0  0  0  0  0  0  0  0  0  0  0  0
    4.3369    2.3718   -0.4686 C   0  0  0  0  0  0  0  0  0  0  0  0
    5.4167    3.1565   -0.8850 C   0  0  0  0  0  0  0  0  0  0  0  0
    6.6802    2.5797   -1.0507 C   0  0  0  0  0  0  0  0  0  0  0  0
    8.0333    3.5651   -1.5752 Cl  0  0  0  0  0  0  0  0  0  0  0  0
    6.8621    1.2149   -0.8041 C   0  0  0  0  0  0  0  0  0  0  0  0
    5.7840    0.4276   -0.3876 C   0  0  0  0  0  0  0  0  0  0  0  0
    0.7938   -3.5471   -1.4544 H   0  0  0  0  0  0  0  0  0  0  0  0
    0.6853   -4.2516    0.1907 H   0  0  0  0  0  0  0  0  0  0  0  0
   -0.5623   -3.0828   -0.3611 H   0  0  0  0  0  0  0  0  0  0  0  0
    2.4259   -2.5647    0.0933 H   0  0  0  0  0  0  0  0  0  0  0  0
    1.7059   -1.1509    2.0642 H   0  0  0  0  0  0  0  0  0  0  0  0
    0.0125   -1.7188    1.8091 H   0  0  0  0  0  0  0  0  0  0  0  0
    1.3114   -2.8891    2.2124 H   0  0  0  0  0  0  0  0  0  0  0  0
    0.9503   -1.2093   -1.7484 H   0  0  0  0  0  0  0  0  0  0  0  0
    0.4612    0.4799    0.7710 H   0  0  0  0  0  0  0  0  0  0  0  0
    0.4984    1.1337   -0.8801 H   0  0  0  0  0  0  0  0  0  0  0  0
   -1.4048   -1.0760    0.0926 H   0  0  0  0  0  0  0  0  0  0  0  0
   -1.2567   -1.2967   -2.1828 H   0  0  0  0  0  0  0  0  0  0  0  0
   -1.1051    0.3672   -2.4742 H   0  0  0  0  0  0  0  0  0  0  0  0
   -4.0039    2.7379    0.4623 H   0  0  0  0  0  0  0  0  0  0  0  0
   -4.5413    1.8103    1.8988 H   0  0  0  0  0  0  0  0  0  0  0  0
   -6.5041    2.2389    0.5690 H   0  0  0  0  0  0  0  0  0  0  0  0
   -5.6729    1.8129   -0.9573 H   0  0  0  0  0  0  0  0  0  0  0  0
   -6.3478   -0.3510   -0.7961 H   0  0  0  0  0  0  0  0  0  0  0  0
   -7.3218    0.0977    0.6365 H   0  0  0  0  0  0  0  0  0  0  0  0
   -5.7691   -1.8553    1.0351 H   0  0  0  0  0  0  0  0  0  0  0  0
   -5.4855   -0.4824    2.1584 H   0  0  0  0  0  0  0  0  0  0  0  0
   -3.3199   -1.2538    1.3976 H   0  0  0  0  0  0  0  0  0  0  0  0
   -3.8525   -1.2715   -0.3300 H   0  0  0  0  0  0  0  0  0  0  0  0
    3.2193   -0.9875   -1.5012 H   0  0  0  0  0  0  0  0  0  0  0  0
    3.7075   -0.7192    0.7902 H   0  0  0  0  0  0  0  0  0  0  0  0
    2.6919    0.7586    0.8678 H   0  0  0  0  0  0  0  0  0  0  0  0
    3.3613    2.8284   -0.3540 H   0  0  0  0  0  0  0  0  0  0  0  0
    5.2694    4.2108   -1.0820 H   0  0  0  0  0  0  0  0  0  0  0  0
    7.8364    0.7625   -0.9384 H   0  0  0  0  0  0  0  0  0  0  0  0
    5.9368   -0.6298   -0.2103 H   0  0  0  0  0  0  0  0  0  0  0  0
  1  2  1  0
  2  3  1  0
  2  4  1  0
  4  5  1  0
  5  6  1  0
  6  7  1  0
  6  8  1  0
  8  9  2  0
  8 10  1  0
 10 11  1  0
 11 12  1  0
 12 13  1  0
 13 14  1  0
 14 15  1  0
  4 16  1  0
 16 17  1  0
 17 18  1  0
 18 19  2  0
 19 20  1  0
 20 21  2  0
 21 22  1  0
 21 23  1  0
 23 24  2  0
 15 10  1  0
 24 18  1  0
  1 25  1  0
  1 26  1  0
  1 27  1  0
  2 28  1  0
  3 29  1  0
  3 30  1  0
  3 31  1  0
  4 32  1  6
  5 33  1  0
  5 34  1  0
  6 35  1  1
  7 36  1  0
  7 37  1  0
 11 38  1  0
 11 39  1  0
 12 40  1  0
 12 41  1  0
 13 42  1  0
 13 43  1  0
 14 44  1  0
 14 45  1  0
 15 46  1  0
 15 47  1  0
 16 48  1  0
 17 49  1  0
 17 50  1  0
 19 51  1  0
 20 52  1  0
 23 53  1  0
 24 54  1  0
M  END
$$$$
