
     RDKit          3D

 47 49  0  0  0  0  0  0  0  0999 V2000
   -4.3064    2.0322    0.4230 C   0  0  0  0  0  0  0  0  0  0  0  0
   -3.9829    0.6600    0.0352 N   0  0  0  0  0  0  0  0  0  0  0  0
   -4.7605   -0.2185   -0.6477 C   0  0  0  0  0  0  0  0  0  0  0  0
   -6.0942    0.1177   -1.2476 C   0  0  0  0  0  0  0  0  0  0  0  0
   -6.6828   -1.0195   -1.7711 F   0  0  0  0  0  0  0  0  0  0  0  0
   -6.9261    0.6441   -0.2769 F   0  0  0  0  0  0  0  0  0  0  0  0
   -5.9270    1.0425   -2.2612 F   0  0  0  0  0  0  0  0  0  0  0  0
   -4.2040   -1.4509   -0.7456 N   0  0  0  0  0  0  0  0  0  0  0  0
   -3.0481   -1.3302   -0.0651 C   0  0  0  0  0  0  0  0  0  0  0  0
   -2.9038   -0.0543    0.4007 C   0  0  0  0  0  0  0  0  0  0  0  0
   -1.7535    0.3985    1.2488 C   0  0  0  0  0  0  0  0  0  0  0  0
   -0.7213   -0.6531    1.3247 N   0  0  0  0  0  0  0  0  0  0  0  0
    0.6114   -0.2706    1.7237 C   0  0  0  0  0  0  0  0  0  0  0  0
    0.7751    0.7605    2.4314 O   0  0  0  0  0  0  0  0  0  0  0  0
    1.8288   -1.0517    1.2976 C   0  0  0  0  0  0  0  0  0  0  0  0
    1.9100   -1.2383   -0.2372 C   0  0  2  0  0  0  0  0  0  0  0  0
    3.0104   -2.1385   -0.5935 N   0  0  0  0  0  0  0  0  0  0  0  0
    2.0234    0.0920   -1.0191 C   0  0  0  0  0  0  0  0  0  0  0  0
    3.3013    0.8543   -0.7484 C   0  0  0  0  0  0  0  0  0  0  0  0
    3.3326    1.8456    0.2479 C   0  0  0  0  0  0  0  0  0  0  0  0
    4.5132    2.5457    0.5136 C   0  0  0  0  0  0  0  0  0  0  0  0
    4.5337    3.4973    1.4791 F   0  0  0  0  0  0  0  0  0  0  0  0
    5.6711    2.2672   -0.2165 C   0  0  0  0  0  0  0  0  0  0  0  0
    5.6492    1.2918   -1.2161 C   0  0  0  0  0  0  0  0  0  0  0  0
    4.4713    0.5876   -1.4865 C   0  0  0  0  0  0  0  0  0  0  0  0
    4.4724   -0.3485   -2.4693 F   0  0  0  0  0  0  0  0  0  0  0  0
   -1.1371   -2.0721    1.3320 C   0  0  0  0  0  0  0  0  0  0  0  0
   -2.0198   -2.3971    0.1143 C   0  0  0  0  0  0  0  0  0  0  0  0
   -3.3799    2.6136    0.6103 H   0  0  0  0  0  0  0  0  0  0  0  0
   -4.8688    2.5408   -0.3870 H   0  0  0  0  0  0  0  0  0  0  0  0
   -4.9213    2.0215    1.3469 H   0  0  0  0  0  0  0  0  0  0  0  0
   -1.3209    1.3163    0.7953 H   0  0  0  0  0  0  0  0  0  0  0  0
   -2.1201    0.6333    2.2705 H   0  0  0  0  0  0  0  0  0  0  0  0
    1.8151   -2.0419    1.7986 H   0  0  0  0  0  0  0  0  0  0  0  0
    2.7462   -0.5390    1.6591 H   0  0  0  0  0  0  0  0  0  0  0  0
    0.9676   -1.7199   -0.5763 H   0  0  0  0  0  0  0  0  0  0  0  0
    2.7787   -3.0988   -0.2489 H   0  0  0  0  0  0  0  0  0  0  0  0
    3.8819   -1.8408   -0.0973 H   0  0  0  0  0  0  0  0  0  0  0  0
    1.1460    0.7346   -0.7876 H   0  0  0  0  0  0  0  0  0  0  0  0
    1.9508   -0.1276   -2.1067 H   0  0  0  0  0  0  0  0  0  0  0  0
    2.4421    2.0790    0.8162 H   0  0  0  0  0  0  0  0  0  0  0  0
    6.5851    2.8095   -0.0112 H   0  0  0  0  0  0  0  0  0  0  0  0
    6.5470    1.0826   -1.7834 H   0  0  0  0  0  0  0  0  0  0  0  0
   -1.7095   -2.2721    2.2639 H   0  0  0  0  0  0  0  0  0  0  0  0
   -0.2677   -2.7588    1.3256 H   0  0  0  0  0  0  0  0  0  0  0  0
   -2.5158   -3.3801    0.2612 H   0  0  0  0  0  0  0  0  0  0  0  0
   -1.3928   -2.4460   -0.8009 H   0  0  0  0  0  0  0  0  0  0  0  0
  1  2  1  0
  2  3  1  0
  3  4  1  0
  4  5  1  0
  4  6  1  0
  4  7  1  0
  3  8  2  0
  8  9  1  0
  9 10  2  0
 10 11  1  0
 11 12  1  0
 12 13  1  0
 13 14  2  0
 13 15  1  0
 15 16  1  0
 16 17  1  0
 16 18  1  0
 18 19  1  0
 19 20  2  0
 20 21  1  0
 21 22  1  0
 21 23  2  0
 23 24  1  0
 24 25  2  0
 25 26  1  0
 12 27  1  0
 27 28  1  0
 10  2  1  0
 25 19  1  0
 28  9  1  0
  1 29  1  0
  1 30  1  0
  1 31  1  0
 11 32  1  0
 11 33  1  0
 15 34  1  0
 15 35  1  0
 16 36  1  6
 17 37  1  0
 17 38  1  0
 18 39  1  0
 18 40  1  0
 20 41  1  0
 23 42  1  0
 24 43  1  0
 27 44  1  0
 27 45  1  0
 28 46  1  0
 28 47  1  0
M  END
$$$$
