
     RDKit          3D

 52 55  0  0  0  0  0  0  0  0999 V2000
   -4.9000    1.2321   -2.6815 N   0  0  0  0  0  0  0  0  0  0  0  0
   -5.2201    1.2334   -1.5694 C   0  0  0  0  0  0  0  0  0  0  0  0
   -5.6257    1.2338   -0.1543 C   0  0  2  0  0  0  0  0  0  0  0  0
   -5.7053    2.6568    0.3985 C   0  0  0  0  0  0  0  0  0  0  0  0
   -4.4007    2.8727    1.1633 C   0  0  0  0  0  0  0  0  0  0  0  0
   -4.6112    3.6392    2.2973 F   0  0  0  0  0  0  0  0  0  0  0  0
   -3.4783    3.5051    0.3451 F   0  0  0  0  0  0  0  0  0  0  0  0
   -3.9025    1.4779    1.5291 C   0  0  0  0  0  0  0  0  0  0  0  0
   -4.6137    0.5619    0.6490 N   0  0  0  0  0  0  0  0  0  0  0  0
   -4.4403   -0.8699    0.6490 C   0  0  0  0  0  0  0  0  0  0  0  0
   -5.2194   -1.5903   -0.0324 O   0  0  0  0  0  0  0  0  0  0  0  0
   -3.3420   -1.5435    1.4252 C   0  0  0  0  0  0  0  0  0  0  0  0
   -2.4298   -2.2284    0.5126 N   0  0  0  0  0  0  0  0  0  0  0  0
   -1.5437   -1.5196   -0.3671 C   0  0  0  0  0  0  0  0  0  0  0  0
   -1.5018   -0.2597   -0.3392 O   0  0  0  0  0  0  0  0  0  0  0  0
   -0.7139   -2.2605   -1.3440 C   0  0  0  0  0  0  0  0  0  0  0  0
   -1.3315   -3.2585   -2.1136 C   0  0  0  0  0  0  0  0  0  0  0  0
   -0.6055   -3.9383   -3.0896 C   0  0  0  0  0  0  0  0  0  0  0  0
    0.7012   -3.6413   -3.2988 N   0  0  0  0  0  0  0  0  0  0  0  0
    1.3478   -2.6944   -2.5696 C   0  0  0  0  0  0  0  0  0  0  0  0
    2.6971   -2.4362   -2.8224 C   0  0  0  0  0  0  0  0  0  0  0  0
    3.3882   -1.4888   -2.0670 C   0  0  0  0  0  0  0  0  0  0  0  0
    2.7418   -0.7965   -1.0263 C   0  0  0  0  0  0  0  0  0  0  0  0
    3.4385    0.2142   -0.1916 C   0  0  0  0  0  0  0  0  0  0  0  0
    4.7672    0.2313    0.0000 C   0  0  0  0  0  0  0  0  0  0  0  0
    5.4668    1.2392    0.8351 C   0  0  0  0  0  0  0  0  0  0  0  0
    6.8419    1.4421    0.6404 C   0  0  0  0  0  0  0  0  0  0  0  0
    7.5335    2.3758    1.4135 C   0  0  0  0  0  0  0  0  0  0  0  0
    6.8471    3.0973    2.3895 C   0  0  0  0  0  0  0  0  0  0  0  0
    5.5202    2.8826    2.5856 N   0  0  0  0  0  0  0  0  0  0  0  0
    4.8212    1.9816    1.8443 C   0  0  0  0  0  0  0  0  0  0  0  0
    1.3791   -1.0420   -0.7852 C   0  0  0  0  0  0  0  0  0  0  0  0
    0.6608   -1.9787   -1.5585 C   0  0  0  0  0  0  0  0  0  0  0  0
   -6.6095    0.7266   -0.0482 H   0  0  0  0  0  0  0  0  0  0  0  0
   -5.8525    3.4275   -0.3911 H   0  0  0  0  0  0  0  0  0  0  0  0
   -6.5604    2.7196    1.1076 H   0  0  0  0  0  0  0  0  0  0  0  0
   -2.8059    1.4047    1.3687 H   0  0  0  0  0  0  0  0  0  0  0  0
   -4.1467    1.2386    2.5871 H   0  0  0  0  0  0  0  0  0  0  0  0
   -2.7703   -0.8361    2.0582 H   0  0  0  0  0  0  0  0  0  0  0  0
   -3.8040   -2.2888    2.1078 H   0  0  0  0  0  0  0  0  0  0  0  0
   -2.4082   -3.2732    0.5253 H   0  0  0  0  0  0  0  0  0  0  0  0
   -2.3808   -3.4924   -1.9794 H   0  0  0  0  0  0  0  0  0  0  0  0
   -1.0858   -4.6990   -3.6904 H   0  0  0  0  0  0  0  0  0  0  0  0
    3.2147   -2.9703   -3.6100 H   0  0  0  0  0  0  0  0  0  0  0  0
    4.4221   -1.2944   -2.3155 H   0  0  0  0  0  0  0  0  0  0  0  0
    2.8176    0.9552    0.2926 H   0  0  0  0  0  0  0  0  0  0  0  0
    5.3860   -0.5136   -0.4818 H   0  0  0  0  0  0  0  0  0  0  0  0
    7.3789    0.8838   -0.1169 H   0  0  0  0  0  0  0  0  0  0  0  0
    8.5923    2.5378    1.2578 H   0  0  0  0  0  0  0  0  0  0  0  0
    7.3706    3.8235    2.9968 H   0  0  0  0  0  0  0  0  0  0  0  0
    3.7747    1.8366    2.0687 H   0  0  0  0  0  0  0  0  0  0  0  0
    0.9004   -0.5167    0.0298 H   0  0  0  0  0  0  0  0  0  0  0  0
  1  2  3  0
  2  3  1  0
  3  4  1  0
  4  5  1  0
  5  6  1  0
  5  7  1  0
  5  8  1  0
  8  9  1  0
  9 10  1  0
 10 11  2  0
 10 12  1  0
 12 13  1  0
 13 14  1  0
 14 15  2  0
 14 16  1  0
 16 17  2  0
 17 18  1  0
 18 19  2  0
 19 20  1  0
 20 21  2  0
 21 22  1  0
 22 23  2  0
 23 24  1  0
 24 25  2  0
 25 26  1  0
 26 27  2  0
 27 28  1  0
 28 29  2  0
 29 30  1  0
 30 31  2  0
 23 32  1  0
 32 33  2  0
  9  3  1  0
 33 16  1  0
 33 20  1  0
 31 26  1  0
  3 34  1  6
  4 35  1  0
  4 36  1  0
  8 37  1  0
  8 38  1  0
 12 39  1  0
 12 40  1  0
 13 41  1  0
 17 42  1  0
 18 43  1  0
 21 44  1  0
 22 45  1  0
 24 46  1  0
 25 47  1  0
 27 48  1  0
 28 49  1  0
 29 50  1  0
 31 51  1  0
 32 52  1  0
M  END
$$$$
