
     RDKit          3D

 36 37  0  0  0  0  0  0  0  0999 V2000
    0.6878    0.0000    0.0000 Cl  0  0  0  0  0  0  0  0  0  0  0  0
   -5.4489   -1.9127    0.5309 N   0  0  0  0  0  0  0  0  0  0  0  0
   -4.7608   -1.0167    0.2801 C   0  0  0  0  0  0  0  0  0  0  0  0
   -3.8863    0.1209   -0.0383 C   0  0  2  0  0  0  0  0  0  0  0  0
   -4.0371    0.5381   -1.4992 C   0  0  0  0  0  0  0  0  0  0  0  0
   -2.8193   -0.3823   -2.4973 S   0  0  0  0  0  0  0  0  0  0  0  0
   -1.7796   -0.7012   -1.0345 C   0  0  1  0  0  0  0  0  0  0  0  0
   -0.4700    0.1058   -1.0416 C   0  0  0  0  0  0  0  0  0  0  0  0
   -0.2283    0.5372    0.4285 C   0  0  2  0  0  0  0  0  0  0  0  0
    0.2108    1.9366    0.4939 N   0  0  0  0  0  0  0  0  0  0  0  0
    0.7252   -0.4222    1.1975 C   0  0  0  0  0  0  0  0  0  0  0  0
    2.1547   -0.3960    0.7062 C   0  0  0  0  0  0  0  0  0  0  0  0
    3.0563    0.5671    1.1927 C   0  0  0  0  0  0  0  0  0  0  0  0
    4.3788    0.5895    0.7395 C   0  0  0  0  0  0  0  0  0  0  0  0
    4.8153   -0.3532   -0.1947 C   0  0  0  0  0  0  0  0  0  0  0  0
    3.9312   -1.3235   -0.6731 C   0  0  0  0  0  0  0  0  0  0  0  0
    2.6078   -1.3495   -0.2227 C   0  0  0  0  0  0  0  0  0  0  0  0
   -1.6019    0.4176    0.9936 C   0  0  0  0  0  0  0  0  0  0  0  0
   -1.9462    0.8848    2.1128 O   0  0  0  0  0  0  0  0  0  0  0  0
   -2.5004   -0.2760    0.1446 N   0  0  0  0  0  0  0  0  0  0  0  0
   -0.6878    0.0000    0.0000 H   0  0  0  0  0  0  0  0  0  0  0  0
   -4.1531    0.9720    0.6260 H   0  0  0  0  0  0  0  0  0  0  0  0
   -3.8056    1.6205   -1.5951 H   0  0  0  0  0  0  0  0  0  0  0  0
   -5.0652    0.3654   -1.8854 H   0  0  0  0  0  0  0  0  0  0  0  0
   -1.5579   -1.7876   -0.9582 H   0  0  0  0  0  0  0  0  0  0  0  0
    0.3593   -0.4925   -1.4677 H   0  0  0  0  0  0  0  0  0  0  0  0
   -0.5965    1.0087   -1.6801 H   0  0  0  0  0  0  0  0  0  0  0  0
    0.4275    2.1897    1.4857 H   0  0  0  0  0  0  0  0  0  0  0  0
    1.0878    2.0530   -0.0633 H   0  0  0  0  0  0  0  0  0  0  0  0
    0.7164   -0.1593    2.2787 H   0  0  0  0  0  0  0  0  0  0  0  0
    0.3333   -1.4622    1.1338 H   0  0  0  0  0  0  0  0  0  0  0  0
    2.7361    1.2994    1.9229 H   0  0  0  0  0  0  0  0  0  0  0  0
    5.0662    1.3366    1.1147 H   0  0  0  0  0  0  0  0  0  0  0  0
    5.8395   -0.3350   -0.5439 H   0  0  0  0  0  0  0  0  0  0  0  0
    4.2722   -2.0580   -1.3913 H   0  0  0  0  0  0  0  0  0  0  0  0
    1.9387   -2.1150   -0.5955 H   0  0  0  0  0  0  0  0  0  0  0  0
  2  3  3  0
  3  4  1  0
  4  5  1  0
  5  6  1  0
  6  7  1  0
  7  8  1  0
  8  9  1  0
  9 10  1  6
  9 11  1  0
 11 12  1  0
 12 13  2  0
 13 14  1  0
 14 15  2  0
 15 16  1  0
 16 17  2  0
  9 18  1  0
 18 19  2  0
 18 20  1  0
 20  4  1  0
 20  7  1  0
 17 12  1  0
  1 21  1  0
  4 22  1  1
  5 23  1  0
  5 24  1  0
  7 25  1  1
  8 26  1  0
  8 27  1  0
 10 28  1  0
 10 29  1  0
 11 30  1  0
 11 31  1  0
 13 32  1  0
 14 33  1  0
 15 34  1  0
 16 35  1  0
 17 36  1  0
M  END
$$$$
