
     RDKit          3D

 54 56  0  0  0  0  0  0  0  0999 V2000
   -3.5515   -2.7338    0.0416 N   0  0  0  0  0  0  0  0  0  0  0  0
   -2.4160   -2.0098    0.6225 C   0  0  2  0  0  0  0  0  0  0  0  0
   -2.8734   -1.1944    1.8179 C   0  0  0  0  0  0  0  0  0  0  0  0
   -2.3172   -1.3992    2.9313 O   0  0  0  0  0  0  0  0  0  0  0  0
   -3.8587   -0.1479    1.7063 N   0  0  0  0  0  0  0  0  0  0  0  0
   -3.8503    0.9787    2.6269 C   0  0  0  0  0  0  0  0  0  0  0  0
   -4.8094    2.0247    2.0894 C   0  0  0  0  0  0  0  0  0  0  0  0
   -6.1169    1.1632    1.1749 S   0  0  0  0  0  0  0  0  0  0  0  0
   -4.9842   -0.2012    0.7810 C   0  0  0  0  0  0  0  0  0  0  0  0
   -1.7088   -1.1068   -0.4337 C   0  0  1  0  0  0  0  0  0  0  0  0
   -0.4886   -0.3848    0.1887 C   0  0  0  0  0  0  0  0  0  0  0  0
    0.2385    0.4854   -0.8415 C   0  0  0  0  0  0  0  0  0  0  0  0
    0.7107   -0.3527   -2.0408 C   0  0  2  0  0  0  0  0  0  0  0  0
    1.3911    0.5277   -3.0121 N   0  0  0  0  0  0  0  0  0  0  0  0
    3.1229    0.4117   -2.8692 S   0  0  0  0  0  0  0  0  0  0  0  0
    3.5662   -0.9851   -3.2076 O   0  0  0  0  0  0  0  0  0  0  0  0
    3.7613    1.3595   -3.8454 O   0  0  0  0  0  0  0  0  0  0  0  0
    3.6478    0.8284   -1.2400 C   0  0  0  0  0  0  0  0  0  0  0  0
    3.9024   -0.1761   -0.2970 C   0  0  0  0  0  0  0  0  0  0  0  0
    4.2770    0.1599    1.0072 C   0  0  0  0  0  0  0  0  0  0  0  0
    4.4008    1.5116    1.3846 C   0  0  0  0  0  0  0  0  0  0  0  0
    4.7702    1.9076    2.6802 O   0  0  0  0  0  0  0  0  0  0  0  0
    5.0560    1.0233    3.7617 C   0  0  0  0  0  0  0  0  0  0  0  0
    5.3781    1.7702    4.8782 F   0  0  0  0  0  0  0  0  0  0  0  0
    3.9473    0.2473    4.0489 F   0  0  0  0  0  0  0  0  0  0  0  0
    6.1303    0.2119    3.4430 F   0  0  0  0  0  0  0  0  0  0  0  0
    4.1447    2.5093    0.4363 C   0  0  0  0  0  0  0  0  0  0  0  0
    3.7683    2.1725   -0.8668 C   0  0  0  0  0  0  0  0  0  0  0  0
   -0.5076   -1.0455   -2.6840 C   0  0  0  0  0  0  0  0  0  0  0  0
   -1.2550   -1.9205   -1.6688 C   0  0  0  0  0  0  0  0  0  0  0  0
   -4.0748   -3.2086    0.8137 H   0  0  0  0  0  0  0  0  0  0  0  0
   -3.1840   -3.5169   -0.5453 H   0  0  0  0  0  0  0  0  0  0  0  0
   -1.6742   -2.7609    0.9830 H   0  0  0  0  0  0  0  0  0  0  0  0
   -4.1812    0.6362    3.6313 H   0  0  0  0  0  0  0  0  0  0  0  0
   -2.8278    1.4093    2.7019 H   0  0  0  0  0  0  0  0  0  0  0  0
   -4.2751    2.7009    1.3880 H   0  0  0  0  0  0  0  0  0  0  0  0
   -5.2461    2.6241    2.9158 H   0  0  0  0  0  0  0  0  0  0  0  0
   -5.5350   -1.1567    0.9024 H   0  0  0  0  0  0  0  0  0  0  0  0
   -4.6354   -0.0924   -0.2650 H   0  0  0  0  0  0  0  0  0  0  0  0
   -2.4245   -0.3324   -0.7833 H   0  0  0  0  0  0  0  0  0  0  0  0
   -0.8171    0.2762    1.0191 H   0  0  0  0  0  0  0  0  0  0  0  0
    0.2229   -1.1307    0.6079 H   0  0  0  0  0  0  0  0  0  0  0  0
   -0.4408    1.2951   -1.1893 H   0  0  0  0  0  0  0  0  0  0  0  0
    1.1048    0.9675   -0.3453 H   0  0  0  0  0  0  0  0  0  0  0  0
    1.3938   -1.1539   -1.6759 H   0  0  0  0  0  0  0  0  0  0  0  0
    1.1686    0.2357   -3.9918 H   0  0  0  0  0  0  0  0  0  0  0  0
    3.8002   -1.2196   -0.5658 H   0  0  0  0  0  0  0  0  0  0  0  0
    4.4626   -0.6387    1.7110 H   0  0  0  0  0  0  0  0  0  0  0  0
    4.2325    3.5523    0.7132 H   0  0  0  0  0  0  0  0  0  0  0  0
    3.5613    2.9593   -1.5810 H   0  0  0  0  0  0  0  0  0  0  0  0
   -0.1664   -1.6902   -3.5232 H   0  0  0  0  0  0  0  0  0  0  0  0
   -1.2032   -0.2822   -3.0987 H   0  0  0  0  0  0  0  0  0  0  0  0
   -2.1381   -2.3479   -2.1889 H   0  0  0  0  0  0  0  0  0  0  0  0
   -0.5986   -2.7606   -1.3507 H   0  0  0  0  0  0  0  0  0  0  0  0
  1  2  1  0
  2  3  1  0
  3  4  2  0
  3  5  1  0
  5  6  1  0
  6  7  1  0
  7  8  1  0
  8  9  1  0
  2 10  1  0
 10 11  1  0
 11 12  1  0
 12 13  1  0
 13 14  1  0
 14 15  1  0
 15 16  2  0
 15 17  2  0
 15 18  1  0
 18 19  2  0
 19 20  1  0
 20 21  2  0
 21 22  1  0
 22 23  1  0
 23 24  1  0
 23 25  1  0
 23 26  1  0
 21 27  1  0
 27 28  2  0
 13 29  1  0
 29 30  1  0
  9  5  1  0
 30 10  1  0
 28 18  1  0
  1 31  1  0
  1 32  1  0
  2 33  1  1
  6 34  1  0
  6 35  1  0
  7 36  1  0
  7 37  1  0
  9 38  1  0
  9 39  1  0
 10 40  1  6
 11 41  1  0
 11 42  1  0
 12 43  1  0
 12 44  1  0
 13 45  1  1
 14 46  1  0
 19 47  1  0
 20 48  1  0
 27 49  1  0
 28 50  1  0
 29 51  1  0
 29 52  1  0
 30 53  1  0
 30 54  1  0
M  END
$$$$
