
     RDKit          3D

 48 52  0  0  0  0  0  0  0  0999 V2000
    2.0565    1.3198   -3.3075 N   0  0  0  0  0  0  0  0  0  0  0  0
    2.6798    1.0835   -2.3616 C   0  0  0  0  0  0  0  0  0  0  0  0
    3.4693    0.7826   -1.1561 C   0  0  2  0  0  0  0  0  0  0  0  0
    4.5301   -0.2917   -1.4297 C   0  0  0  0  0  0  0  0  0  0  0  0
    4.1799   -1.4937   -0.5533 C   0  0  1  0  0  0  0  0  0  0  0  0
    4.2743   -1.2946    0.9536 C   0  0  0  0  0  0  0  0  0  0  0  0
    2.9422   -1.1324    0.2410 C   0  0  1  0  0  0  0  0  0  0  0  0
    2.6025    0.2345   -0.1215 N   0  0  0  0  0  0  0  0  0  0  0  0
    1.6362    1.0340    0.5886 C   0  0  0  0  0  0  0  0  0  0  0  0
    1.6632    2.2893    0.4613 O   0  0  0  0  0  0  0  0  0  0  0  0
    0.5576    0.4075    1.4503 C   0  0  1  0  0  0  0  0  0  0  0  0
    0.4113    1.2029    2.6768 N   0  0  0  0  0  0  0  0  0  0  0  0
   -0.7979    0.1954    0.6700 C   0  0  0  0  0  0  0  0  0  0  0  0
   -1.3275    1.5058    0.0045 C   0  0  0  0  0  0  0  0  0  0  0  0
   -2.6439    1.2312   -0.7547 C   0  0  0  0  0  0  0  0  0  0  0  0
   -2.3945    0.1817   -1.8574 C   0  0  0  0  0  0  0  0  0  0  0  0
   -1.8967   -1.1304   -1.2177 C   0  0  0  0  0  0  0  0  0  0  0  0
   -2.9594   -1.6672   -0.2387 C   0  0  0  0  0  0  0  0  0  0  0  0
   -3.2206   -0.6187    0.8711 C   0  0  0  0  0  0  0  0  0  0  0  0
   -4.1753   -1.1014    1.7844 O   0  0  0  0  0  0  0  0  0  0  0  0
   -3.7101    0.7044    0.2281 C   0  0  0  0  0  0  0  0  0  0  0  0
   -1.9006   -0.3464    1.6315 C   0  0  0  0  0  0  0  0  0  0  0  0
   -0.5834   -0.8655   -0.4539 C   0  0  0  0  0  0  0  0  0  0  0  0
    3.9586    1.7121   -0.7916 H   0  0  0  0  0  0  0  0  0  0  0  0
    5.5423    0.0822   -1.1622 H   0  0  0  0  0  0  0  0  0  0  0  0
    4.5478   -0.6102   -2.4955 H   0  0  0  0  0  0  0  0  0  0  0  0
    4.1827   -2.5314   -0.9503 H   0  0  0  0  0  0  0  0  0  0  0  0
    4.7449   -0.3447    1.2881 H   0  0  0  0  0  0  0  0  0  0  0  0
    4.3543   -2.2361    1.5354 H   0  0  0  0  0  0  0  0  0  0  0  0
    2.1711   -1.9287    0.1947 H   0  0  0  0  0  0  0  0  0  0  0  0
    0.9144   -0.5946    1.7713 H   0  0  0  0  0  0  0  0  0  0  0  0
   -0.0478    0.6281    3.4197 H   0  0  0  0  0  0  0  0  0  0  0  0
   -0.1703    2.0525    2.5073 H   0  0  0  0  0  0  0  0  0  0  0  0
   -0.5851    1.9080   -0.7177 H   0  0  0  0  0  0  0  0  0  0  0  0
   -1.5143    2.2945    0.7626 H   0  0  0  0  0  0  0  0  0  0  0  0
   -3.0055    2.1743   -1.2196 H   0  0  0  0  0  0  0  0  0  0  0  0
   -1.6399    0.5619   -2.5809 H   0  0  0  0  0  0  0  0  0  0  0  0
   -3.3330   -0.0042   -2.4247 H   0  0  0  0  0  0  0  0  0  0  0  0
   -1.7152   -1.8840   -2.0148 H   0  0  0  0  0  0  0  0  0  0  0  0
   -3.8995   -1.8848   -0.7925 H   0  0  0  0  0  0  0  0  0  0  0  0
   -2.6113   -2.6228    0.2122 H   0  0  0  0  0  0  0  0  0  0  0  0
   -5.0168   -1.2671    1.2836 H   0  0  0  0  0  0  0  0  0  0  0  0
   -3.9060    1.4641    1.0168 H   0  0  0  0  0  0  0  0  0  0  0  0
   -4.6664    0.5374   -0.3154 H   0  0  0  0  0  0  0  0  0  0  0  0
   -1.5513   -1.2827    2.1217 H   0  0  0  0  0  0  0  0  0  0  0  0
   -2.1108    0.3912    2.4363 H   0  0  0  0  0  0  0  0  0  0  0  0
    0.1862   -0.5195   -1.1775 H   0  0  0  0  0  0  0  0  0  0  0  0
   -0.2220   -1.8218   -0.0163 H   0  0  0  0  0  0  0  0  0  0  0  0
  1  2  3  0
  2  3  1  0
  3  4  1  0
  4  5  1  0
  5  6  1  0
  6  7  1  0
  7  8  1  0
  8  9  1  0
  9 10  2  0
  9 11  1  0
 11 12  1  0
 11 13  1  0
 13 14  1  0
 14 15  1  0
 15 16  1  0
 16 17  1  0
 17 18  1  0
 18 19  1  0
 19 20  1  0
 19 21  1  0
 19 22  1  0
 17 23  1  0
  8  3  1  0
 22 13  1  0
  7  5  1  0
 23 13  1  0
 21 15  1  0
  3 24  1  1
  4 25  1  0
  4 26  1  0
  5 27  1  6
  6 28  1  0
  6 29  1  0
  7 30  1  1
 11 31  1  1
 12 32  1  0
 12 33  1  0
 14 34  1  0
 14 35  1  0
 15 36  1  0
 16 37  1  0
 16 38  1  0
 17 39  1  0
 18 40  1  0
 18 41  1  0
 20 42  1  0
 21 43  1  0
 21 44  1  0
 22 45  1  0
 22 46  1  0
 23 47  1  0
 23 48  1  0
M  END
$$$$
