
     RDKit          3D

 50 51  0  0  0  0  0  0  0  0999 V2000
    7.8881    1.2784   -1.2988 C   0  0  0  0  0  0  0  0  0  0  0  0
    7.3767    1.9632    0.2631 S   0  0  0  0  0  0  0  0  0  0  0  0
    8.6033    2.2540    1.0808 O   0  0  0  0  0  0  0  0  0  0  0  0
    6.6226    3.2462    0.0536 O   0  0  0  0  0  0  0  0  0  0  0  0
    6.3880    0.8240    1.1227 N   0  0  0  0  0  0  0  0  0  0  0  0
    5.1080    0.3465    0.6685 C   0  0  0  0  0  0  0  0  0  0  0  0
    4.4499    0.9075   -0.4418 C   0  0  0  0  0  0  0  0  0  0  0  0
    3.2063    0.4165   -0.8498 C   0  0  0  0  0  0  0  0  0  0  0  0
    2.5939   -0.6352   -0.1612 C   0  0  0  0  0  0  0  0  0  0  0  0
    1.3460   -1.0893   -0.6118 O   0  0  0  0  0  0  0  0  0  0  0  0
    0.5993   -2.1379    0.0014 C   0  0  0  0  0  0  0  0  0  0  0  0
   -0.7196   -2.3596   -0.7509 C   0  0  0  0  0  0  0  0  0  0  0  0
   -1.5591   -1.1520   -0.8194 N   0  0  0  0  0  0  0  0  0  0  0  0
   -2.1032   -0.7705    0.4908 C   0  0  0  0  0  0  0  0  0  0  0  0
   -3.2405    0.2385    0.3070 C   0  0  0  0  0  0  0  0  0  0  0  0
   -3.7907    0.7165    1.6650 C   0  0  0  0  0  0  0  0  0  0  0  0
   -4.9685    1.5031    1.4688 O   0  0  0  0  0  0  0  0  0  0  0  0
   -5.9154    1.1540    0.5008 C   0  0  0  0  0  0  0  0  0  0  0  0
   -7.1816    1.7473    0.4903 C   0  0  0  0  0  0  0  0  0  0  0  0
   -8.1236    1.3585   -0.4691 C   0  0  0  0  0  0  0  0  0  0  0  0
   -7.7984    0.3803   -1.4170 C   0  0  0  0  0  0  0  0  0  0  0  0
   -6.5262   -0.2032   -1.4156 C   0  0  0  0  0  0  0  0  0  0  0  0
   -5.5803    0.1955   -0.4663 C   0  0  0  0  0  0  0  0  0  0  0  0
   -4.2929   -0.3501   -0.4652 O   0  0  0  0  0  0  0  0  0  0  0  0
    3.2452   -1.1958    0.9523 C   0  0  0  0  0  0  0  0  0  0  0  0
    4.4887   -0.7057    1.3611 C   0  0  0  0  0  0  0  0  0  0  0  0
    0.6878    0.0000    0.0000 Cl  0  0  0  0  0  0  0  0  0  0  0  0
    8.5602    1.9946   -1.8148 H   0  0  0  0  0  0  0  0  0  0  0  0
    7.0046    1.0820   -1.9386 H   0  0  0  0  0  0  0  0  0  0  0  0
    8.4307    0.3266   -1.1241 H   0  0  0  0  0  0  0  0  0  0  0  0
    6.7917    0.4244    1.9995 H   0  0  0  0  0  0  0  0  0  0  0  0
    4.8800    1.7267   -0.9970 H   0  0  0  0  0  0  0  0  0  0  0  0
    2.7130    0.8587   -1.7063 H   0  0  0  0  0  0  0  0  0  0  0  0
    1.1890   -3.0794   -0.0348 H   0  0  0  0  0  0  0  0  0  0  0  0
    0.3975   -1.8927    1.0654 H   0  0  0  0  0  0  0  0  0  0  0  0
   -1.2832   -3.1936   -0.2778 H   0  0  0  0  0  0  0  0  0  0  0  0
   -0.4831   -2.6817   -1.7879 H   0  0  0  0  0  0  0  0  0  0  0  0
   -1.0002   -0.3552   -1.2054 H   0  0  0  0  0  0  0  0  0  0  0  0
   -1.3068   -0.3067    1.1142 H   0  0  0  0  0  0  0  0  0  0  0  0
   -2.5012   -1.6638    1.0226 H   0  0  0  0  0  0  0  0  0  0  0  0
   -2.8537    1.1265   -0.2408 H   0  0  0  0  0  0  0  0  0  0  0  0
   -4.0517   -0.1612    2.2954 H   0  0  0  0  0  0  0  0  0  0  0  0
   -3.0292    1.3232    2.1993 H   0  0  0  0  0  0  0  0  0  0  0  0
   -7.4385    2.4954    1.2292 H   0  0  0  0  0  0  0  0  0  0  0  0
   -9.1068    1.8109   -0.4752 H   0  0  0  0  0  0  0  0  0  0  0  0
   -8.5302    0.0787   -2.1551 H   0  0  0  0  0  0  0  0  0  0  0  0
   -6.2726   -0.9510   -2.1560 H   0  0  0  0  0  0  0  0  0  0  0  0
    2.8008   -2.0098    1.5084 H   0  0  0  0  0  0  0  0  0  0  0  0
    4.9737   -1.1513    2.2207 H   0  0  0  0  0  0  0  0  0  0  0  0
   -0.6878    0.0000    0.0000 H   0  0  0  0  0  0  0  0  0  0  0  0
  1  2  1  0
  2  3  2  0
  2  4  2  0
  2  5  1  0
  5  6  1  0
  6  7  2  0
  7  8  1  0
  8  9  2  0
  9 10  1  0
 10 11  1  0
 11 12  1  0
 12 13  1  0
 13 14  1  0
 14 15  1  0
 15 16  1  0
 16 17  1  0
 17 18  1  0
 18 19  2  0
 19 20  1  0
 20 21  2  0
 21 22  1  0
 22 23  2  0
 23 24  1  0
  9 25  1  0
 25 26  2  0
 26  6  1  0
 24 15  1  0
 23 18  1  0
  1 28  1  0
  1 29  1  0
  1 30  1  0
  5 31  1  0
  7 32  1  0
  8 33  1  0
 11 34  1  0
 11 35  1  0
 12 36  1  0
 12 37  1  0
 13 38  1  0
 14 39  1  0
 14 40  1  0
 15 41  1  0
 16 42  1  0
 16 43  1  0
 19 44  1  0
 20 45  1  0
 21 46  1  0
 22 47  1  0
 25 48  1  0
 26 49  1  0
 27 50  1  0
M  END
$$$$
