
     RDKit          3D

 49 51  0  0  0  0  0  0  0  0999 V2000
   -3.4882    2.0259   -0.9874 O   0  0  0  0  0  0  0  0  0  0  0  0
   -3.0995    2.3752    0.1601 C   0  0  0  0  0  0  0  0  0  0  0  0
   -4.0939    2.9049    1.1419 C   0  0  0  0  0  0  0  0  0  0  0  0
   -4.4980    1.8699    1.9925 O   0  0  0  0  0  0  0  0  0  0  0  0
   -1.7260    2.2155    0.5459 N   0  0  0  0  0  0  0  0  0  0  0  0
   -0.7274    1.5615   -0.3070 C   0  0  1  0  0  0  0  0  0  0  0  0
    0.5698    2.3927   -0.2911 C   0  0  0  0  0  0  0  0  0  0  0  0
    1.5132    1.9665   -1.3860 C   0  0  0  0  0  0  0  0  0  0  0  0
    1.3346    2.4137   -2.5512 O   0  0  0  0  0  0  0  0  0  0  0  0
    2.5268    0.9727   -1.1579 N   0  0  0  0  0  0  0  0  0  0  0  0
    3.4412    1.0470   -0.0069 C   0  0  0  0  0  0  0  0  0  0  0  0
    3.3625   -0.2554    0.8023 C   0  0  0  0  0  0  0  0  0  0  0  0
    3.3614   -1.4030   -0.1061 N   0  0  0  0  0  0  0  0  0  0  0  0
    3.0281   -1.3769   -1.4059 C   0  0  0  0  0  0  0  0  0  0  0  0
    3.0309   -2.6093   -1.9470 N   0  0  0  0  0  0  0  0  0  0  0  0
    3.3479   -3.4501   -0.9698 N   0  0  0  0  0  0  0  0  0  0  0  0
    3.5350   -2.7138    0.1465 C   0  0  0  0  0  0  0  0  0  0  0  0
    3.8866   -3.2915    1.4830 C   0  0  0  0  0  0  0  0  0  0  0  0
    2.9491   -2.9003    2.4207 F   0  0  0  0  0  0  0  0  0  0  0  0
    3.9063   -4.6729    1.4158 F   0  0  0  0  0  0  0  0  0  0  0  0
    5.1355   -2.8413    1.8678 F   0  0  0  0  0  0  0  0  0  0  0  0
    2.7181   -0.1083   -2.1356 C   0  0  0  0  0  0  0  0  0  0  0  0
   -0.4815    0.1226    0.1936 C   0  0  0  0  0  0  0  0  0  0  0  0
   -1.7284   -0.7183    0.0865 C   0  0  0  0  0  0  0  0  0  0  0  0
   -2.5693   -0.8768    1.2014 C   0  0  0  0  0  0  0  0  0  0  0  0
   -3.7507   -1.6168    1.0955 C   0  0  0  0  0  0  0  0  0  0  0  0
   -4.5571   -1.7601    2.1762 F   0  0  0  0  0  0  0  0  0  0  0  0
   -4.1028   -2.2025   -0.1242 C   0  0  0  0  0  0  0  0  0  0  0  0
   -5.2492   -2.9190   -0.2287 F   0  0  0  0  0  0  0  0  0  0  0  0
   -3.2748   -2.0458   -1.2394 C   0  0  0  0  0  0  0  0  0  0  0  0
   -2.0932   -1.3044   -1.1398 C   0  0  0  0  0  0  0  0  0  0  0  0
   -1.3094   -1.1532   -2.2377 F   0  0  0  0  0  0  0  0  0  0  0  0
   -3.6280    3.7236    1.7339 H   0  0  0  0  0  0  0  0  0  0  0  0
   -4.9751    3.3159    0.6004 H   0  0  0  0  0  0  0  0  0  0  0  0
   -5.1478    2.2722    2.6255 H   0  0  0  0  0  0  0  0  0  0  0  0
   -1.4561    2.4565    1.5271 H   0  0  0  0  0  0  0  0  0  0  0  0
   -1.0943    1.5216   -1.3573 H   0  0  0  0  0  0  0  0  0  0  0  0
    1.0446    2.3211    0.7082 H   0  0  0  0  0  0  0  0  0  0  0  0
    0.3163    3.4637   -0.4511 H   0  0  0  0  0  0  0  0  0  0  0  0
    4.4791    1.1763   -0.3838 H   0  0  0  0  0  0  0  0  0  0  0  0
    3.2227    1.9171    0.6453 H   0  0  0  0  0  0  0  0  0  0  0  0
    2.4254   -0.2627    1.3985 H   0  0  0  0  0  0  0  0  0  0  0  0
    4.2288   -0.3162    1.4947 H   0  0  0  0  0  0  0  0  0  0  0  0
    3.5614    0.1465   -2.8113 H   0  0  0  0  0  0  0  0  0  0  0  0
    1.7969   -0.2581   -2.7399 H   0  0  0  0  0  0  0  0  0  0  0  0
    0.3209   -0.3598   -0.4013 H   0  0  0  0  0  0  0  0  0  0  0  0
   -0.1265    0.1477    1.2474 H   0  0  0  0  0  0  0  0  0  0  0  0
   -2.3146   -0.4177    2.1487 H   0  0  0  0  0  0  0  0  0  0  0  0
   -3.5515   -2.4960   -2.1841 H   0  0  0  0  0  0  0  0  0  0  0  0
  1  2  2  0
  2  3  1  0
  3  4  1  0
  2  5  1  0
  5  6  1  0
  6  7  1  0
  7  8  1  0
  8  9  2  0
  8 10  1  0
 10 11  1  0
 11 12  1  0
 12 13  1  0
 13 14  1  0
 14 15  2  0
 15 16  1  0
 16 17  2  0
 17 18  1  0
 18 19  1  0
 18 20  1  0
 18 21  1  0
 14 22  1  0
  6 23  1  0
 23 24  1  0
 24 25  2  0
 25 26  1  0
 26 27  1  0
 26 28  2  0
 28 29  1  0
 28 30  1  0
 30 31  2  0
 31 32  1  0
 22 10  1  0
 31 24  1  0
 17 13  1  0
  3 33  1  0
  3 34  1  0
  4 35  1  0
  5 36  1  0
  6 37  1  6
  7 38  1  0
  7 39  1  0
 11 40  1  0
 11 41  1  0
 12 42  1  0
 12 43  1  0
 22 44  1  0
 22 45  1  0
 23 46  1  0
 23 47  1  0
 25 48  1  0
 30 49  1  0
M  END
$$$$
