
     RDKit          3D

 59 60  0  0  0  0  0  0  0  0999 V2000
    8.9723   -1.2413   -0.2903 C   0  0  0  0  0  0  0  0  0  0  0  0
    7.5340   -0.8248   -0.3771 C   0  0  0  0  0  0  0  0  0  0  0  0
    7.1018    0.0114   -1.4159 C   0  0  0  0  0  0  0  0  0  0  0  0
    5.7699    0.4313   -1.4763 C   0  0  0  0  0  0  0  0  0  0  0  0
    4.8472    0.0250   -0.4968 C   0  0  0  0  0  0  0  0  0  0  0  0
    3.4777    0.4703   -0.5610 N   0  0  0  0  0  0  0  0  0  0  0  0
    3.0315    1.7534   -1.1047 C   0  0  0  0  0  0  0  0  0  0  0  0
    1.5161    1.8453   -0.7966 C   0  0  0  0  0  0  0  0  0  0  0  0
    1.1554    0.5596   -0.2134 N   0  0  0  0  0  0  0  0  0  0  0  0
   -0.1754    0.1931    0.2657 C   0  0  0  0  0  0  0  0  0  0  0  0
   -0.7986   -0.8656   -0.6577 C   0  0  0  0  0  0  0  0  0  0  0  0
   -2.0932   -1.3570   -0.1600 N   0  0  0  0  0  0  0  0  0  0  0  0
   -3.1669   -0.3671   -0.3236 C   0  0  0  0  0  0  0  0  0  0  0  0
   -4.5106   -1.0093   -0.1082 C   0  0  0  0  0  0  0  0  0  0  0  0
   -4.6495   -2.2430   -0.3331 O   0  0  0  0  0  0  0  0  0  0  0  0
   -5.6525   -0.2253    0.2896 N   0  0  0  0  0  0  0  0  0  0  0  0
   -5.6728    1.2288    0.2759 C   0  0  0  0  0  0  0  0  0  0  0  0
   -7.1403    1.6223    0.3732 C   0  0  0  0  0  0  0  0  0  0  0  0
   -7.8693    0.3892    0.8990 C   0  0  0  0  0  0  0  0  0  0  0  0
   -6.9610   -0.7988    0.5741 C   0  0  2  0  0  0  0  0  0  0  0  0
   -6.8855   -1.7357    1.7080 C   0  0  0  0  0  0  0  0  0  0  0  0
   -6.8255   -2.4721    2.5987 N   0  0  0  0  0  0  0  0  0  0  0  0
    2.3326   -0.2073   -0.0752 C   0  0  0  0  0  0  0  0  0  0  0  0
    2.3480   -1.3795    0.3871 O   0  0  0  0  0  0  0  0  0  0  0  0
    5.2937   -0.7875    0.5609 C   0  0  0  0  0  0  0  0  0  0  0  0
    6.6263   -1.2059    0.6209 C   0  0  0  0  0  0  0  0  0  0  0  0
   -1.0128    0.0137    1.5383 O   0  0  0  0  0  0  0  0  0  0  0  0
   -0.7043    0.0212    0.3169 C   0  0  0  0  0  0  0  0  0  0  0  0
   -1.7029    0.0698   -0.6511 O   0  0  0  0  0  0  0  0  0  0  0  0
    0.7043   -0.0212   -0.0836 C   0  0  0  0  0  0  0  0  0  0  0  0
    1.0128   -0.0137   -1.3051 O   0  0  0  0  0  0  0  0  0  0  0  0
    1.7029   -0.0698    0.8844 O   0  0  0  0  0  0  0  0  0  0  0  0
    9.4175   -1.3263   -1.3045 H   0  0  0  0  0  0  0  0  0  0  0  0
    9.5406   -0.4868    0.2927 H   0  0  0  0  0  0  0  0  0  0  0  0
    9.0645   -2.2296    0.2087 H   0  0  0  0  0  0  0  0  0  0  0  0
    7.7958    0.3382   -2.1806 H   0  0  0  0  0  0  0  0  0  0  0  0
    5.4606    1.0667   -2.2952 H   0  0  0  0  0  0  0  0  0  0  0  0
    3.5830    2.5874   -0.6193 H   0  0  0  0  0  0  0  0  0  0  0  0
    3.1959    1.7778   -2.2033 H   0  0  0  0  0  0  0  0  0  0  0  0
    0.9314    2.0192   -1.7256 H   0  0  0  0  0  0  0  0  0  0  0  0
    1.3169    2.6584   -0.0656 H   0  0  0  0  0  0  0  0  0  0  0  0
   -0.0980   -0.1952    1.3042 H   0  0  0  0  0  0  0  0  0  0  0  0
   -0.8171    1.0990    0.2821 H   0  0  0  0  0  0  0  0  0  0  0  0
   -0.1084   -1.7329   -0.7285 H   0  0  0  0  0  0  0  0  0  0  0  0
   -0.9047   -0.4557   -1.6865 H   0  0  0  0  0  0  0  0  0  0  0  0
   -2.0058   -1.6031    0.8545 H   0  0  0  0  0  0  0  0  0  0  0  0
   -3.0345    0.4560    0.4104 H   0  0  0  0  0  0  0  0  0  0  0  0
   -3.1549    0.0580   -1.3508 H   0  0  0  0  0  0  0  0  0  0  0  0
   -5.2324    1.6193   -0.6674 H   0  0  0  0  0  0  0  0  0  0  0  0
   -5.1067    1.6174    1.1499 H   0  0  0  0  0  0  0  0  0  0  0  0
   -7.5258    1.8756   -0.6391 H   0  0  0  0  0  0  0  0  0  0  0  0
   -7.2816    2.4960    1.0458 H   0  0  0  0  0  0  0  0  0  0  0  0
   -8.8642    0.2772    0.4154 H   0  0  0  0  0  0  0  0  0  0  0  0
   -8.0171    0.5042    1.9972 H   0  0  0  0  0  0  0  0  0  0  0  0
   -7.3359   -1.3330   -0.3260 H   0  0  0  0  0  0  0  0  0  0  0  0
    4.6244   -1.0755    1.3596 H   0  0  0  0  0  0  0  0  0  0  0  0
    6.9514   -1.8221    1.4503 H   0  0  0  0  0  0  0  0  0  0  0  0
   -2.6807    0.0995   -0.3879 H   0  0  0  0  0  0  0  0  0  0  0  0
    2.6807   -0.0995    0.6211 H   0  0  0  0  0  0  0  0  0  0  0  0
  1  2  1  0
  2  3  2  0
  3  4  1  0
  4  5  2  0
  5  6  1  0
  6  7  1  0
  7  8  1  0
  8  9  1  0
  9 10  1  0
 10 11  1  0
 11 12  1  0
 12 13  1  0
 13 14  1  0
 14 15  2  0
 14 16  1  0
 16 17  1  0
 17 18  1  0
 18 19  1  0
 19 20  1  0
 20 21  1  0
 21 22  3  0
  9 23  1  0
 23 24  2  0
  5 25  1  0
 25 26  2  0
 27 28  2  0
 28 29  1  0
 28 30  1  0
 30 31  2  0
 30 32  1  0
 26  2  1  0
 23  6  1  0
 20 16  1  0
  1 33  1  0
  1 34  1  0
  1 35  1  0
  3 36  1  0
  4 37  1  0
  7 38  1  0
  7 39  1  0
  8 40  1  0
  8 41  1  0
 10 42  1  0
 10 43  1  0
 11 44  1  0
 11 45  1  0
 12 46  1  0
 13 47  1  0
 13 48  1  0
 17 49  1  0
 17 50  1  0
 18 51  1  0
 18 52  1  0
 19 53  1  0
 19 54  1  0
 20 55  1  6
 25 56  1  0
 26 57  1  0
 29 58  1  0
 32 59  1  0
M  END
$$$$
