
     RDKit          3D

 44 47  0  0  0  0  0  0  0  0999 V2000
    0.8774    2.6114   -1.0165 O   0  0  0  0  0  0  0  0  0  0  0  0
    1.0930    1.3744   -1.1428 C   0  0  0  0  0  0  0  0  0  0  0  0
    0.0565    0.5031   -1.8223 C   0  0  2  0  0  0  0  0  0  0  0  0
   -0.6607    1.2125   -2.9820 C   0  0  0  0  0  0  0  0  0  0  0  0
   -2.0420    1.4563   -2.5705 N   0  0  0  0  0  0  0  0  0  0  0  0
   -2.3403    0.3835   -1.6169 C   0  0  2  0  0  0  0  0  0  0  0  0
   -3.4934    0.7194   -0.6879 C   0  0  0  0  0  0  0  0  0  0  0  0
   -3.7432    1.9273   -0.4213 O   0  0  0  0  0  0  0  0  0  0  0  0
   -4.2600   -0.3157   -0.0379 N   0  0  0  0  0  0  0  0  0  0  0  0
   -5.2294    0.0061    1.0001 C   0  0  0  0  0  0  0  0  0  0  0  0
   -5.6028   -1.2834    1.7100 C   0  0  0  0  0  0  0  0  0  0  0  0
   -5.4138   -2.6491    0.5327 S   0  0  0  0  0  0  0  0  0  0  0  0
   -4.1412   -1.7282   -0.3781 C   0  0  0  0  0  0  0  0  0  0  0  0
   -1.0528    0.1078   -0.8513 C   0  0  0  0  0  0  0  0  0  0  0  0
    2.2780    0.8048   -0.5599 N   0  0  0  0  0  0  0  0  0  0  0  0
    3.2818    1.6032    0.1474 C   0  0  0  0  0  0  0  0  0  0  0  0
    4.2447    0.5835    0.6275 C   0  0  0  0  0  0  0  0  0  0  0  0
    5.4094    0.7859    1.3697 C   0  0  0  0  0  0  0  0  0  0  0  0
    6.1811   -0.3326    1.7244 C   0  0  0  0  0  0  0  0  0  0  0  0
    5.7786   -1.6247    1.3347 C   0  0  0  0  0  0  0  0  0  0  0  0
    4.6026   -1.8046    0.5885 C   0  0  0  0  0  0  0  0  0  0  0  0
    3.8512   -0.6787    0.2475 C   0  0  0  0  0  0  0  0  0  0  0  0
    2.5896   -0.6270   -0.5290 C   0  0  0  0  0  0  0  0  0  0  0  0
    0.5385   -0.4127   -2.2271 H   0  0  0  0  0  0  0  0  0  0  0  0
   -0.6709    0.5491   -3.8750 H   0  0  0  0  0  0  0  0  0  0  0  0
   -0.1651    2.1610   -3.2886 H   0  0  0  0  0  0  0  0  0  0  0  0
   -2.0423    2.3790   -2.0744 H   0  0  0  0  0  0  0  0  0  0  0  0
   -2.6017   -0.5192   -2.2102 H   0  0  0  0  0  0  0  0  0  0  0  0
   -6.1289    0.4620    0.5328 H   0  0  0  0  0  0  0  0  0  0  0  0
   -4.7933    0.7200    1.7327 H   0  0  0  0  0  0  0  0  0  0  0  0
   -4.9129   -1.4572    2.5636 H   0  0  0  0  0  0  0  0  0  0  0  0
   -6.6465   -1.2403    2.0865 H   0  0  0  0  0  0  0  0  0  0  0  0
   -3.1372   -2.1051   -0.0931 H   0  0  0  0  0  0  0  0  0  0  0  0
   -4.3149   -1.8789   -1.4638 H   0  0  0  0  0  0  0  0  0  0  0  0
   -0.9753   -0.9654   -0.5720 H   0  0  0  0  0  0  0  0  0  0  0  0
   -1.0175    0.7221    0.0779 H   0  0  0  0  0  0  0  0  0  0  0  0
    3.7761    2.3117   -0.5508 H   0  0  0  0  0  0  0  0  0  0  0  0
    2.8204    2.1367    1.0058 H   0  0  0  0  0  0  0  0  0  0  0  0
    5.7118    1.7820    1.6659 H   0  0  0  0  0  0  0  0  0  0  0  0
    7.0883   -0.2009    2.2995 H   0  0  0  0  0  0  0  0  0  0  0  0
    6.3778   -2.4825    1.6112 H   0  0  0  0  0  0  0  0  0  0  0  0
    4.2868   -2.7943    0.2850 H   0  0  0  0  0  0  0  0  0  0  0  0
    2.7556   -1.0124   -1.5573 H   0  0  0  0  0  0  0  0  0  0  0  0
    1.7870   -1.1897   -0.0062 H   0  0  0  0  0  0  0  0  0  0  0  0
  1  2  2  0
  2  3  1  0
  3  4  1  0
  4  5  1  0
  5  6  1  0
  6  7  1  0
  7  8  2  0
  7  9  1  0
  9 10  1  0
 10 11  1  0
 11 12  1  0
 12 13  1  0
  6 14  1  0
  2 15  1  0
 15 16  1  0
 16 17  1  0
 17 18  2  0
 18 19  1  0
 19 20  2  0
 20 21  1  0
 21 22  2  0
 22 23  1  0
 14  3  1  0
 23 15  1  0
 13  9  1  0
 22 17  1  0
  3 24  1  6
  4 25  1  0
  4 26  1  0
  5 27  1  0
  6 28  1  6
 10 29  1  0
 10 30  1  0
 11 31  1  0
 11 32  1  0
 13 33  1  0
 13 34  1  0
 14 35  1  0
 14 36  1  0
 16 37  1  0
 16 38  1  0
 18 39  1  0
 19 40  1  0
 20 41  1  0
 21 42  1  0
 23 43  1  0
 23 44  1  0
M  END
$$$$
