
     RDKit          3D

 55 55  0  0  0  0  0  0  0  0999 V2000
    5.0092   -3.4647    0.2703 C   0  0  0  0  0  0  0  0  0  0  0  0
    3.7828   -2.6116    0.1379 C   0  0  0  0  0  0  0  0  0  0  0  0
    3.3625   -2.1693   -1.1262 C   0  0  0  0  0  0  0  0  0  0  0  0
    2.2413   -1.3433   -1.2468 C   0  0  0  0  0  0  0  0  0  0  0  0
    1.5350   -0.9439   -0.1040 C   0  0  0  0  0  0  0  0  0  0  0  0
    0.3523   -0.0620   -0.2308 C   0  0  0  0  0  0  0  0  0  0  0  0
   -0.9340   -0.6229   -0.4519 C   0  0  0  0  0  0  0  0  0  0  0  0
   -1.0947   -2.1288   -0.5856 C   0  0  0  0  0  0  0  0  0  0  0  0
   -0.7493   -2.5495   -1.9394 N   0  0  0  0  0  0  0  0  0  0  0  0
   -2.0383    0.2553   -0.6122 C   0  0  0  0  0  0  0  0  0  0  0  0
   -3.4495   -0.2260   -0.8548 C   0  0  0  0  0  0  0  0  0  0  0  0
   -4.1765   -0.5816    0.4618 C   0  0  0  0  0  0  0  0  0  0  0  0
   -4.4550    0.6690    1.3090 C   0  0  0  0  0  0  0  0  0  0  0  0
   -5.4899   -1.3124    0.1585 C   0  0  0  0  0  0  0  0  0  0  0  0
   -1.8494    1.5969   -0.5160 N   0  0  0  0  0  0  0  0  0  0  0  0
   -0.6384    2.1568   -0.2844 C   0  0  0  0  0  0  0  0  0  0  0  0
   -0.5296    3.5471   -0.2013 C   0  0  0  0  0  0  0  0  0  0  0  0
    0.7093    4.1453    0.0300 C   0  0  0  0  0  0  0  0  0  0  0  0
    1.8626    3.3584    0.1865 C   0  0  0  0  0  0  0  0  0  0  0  0
    3.1878    3.9822    0.4249 C   0  0  0  0  0  0  0  0  0  0  0  0
    3.3074    5.2868    0.9988 N   0  0  0  0  0  0  0  0  0  0  0  0
    4.2375    3.3492    0.1302 O   0  0  0  0  0  0  0  0  0  0  0  0
    1.7522    1.9589    0.0913 C   0  0  0  0  0  0  0  0  0  0  0  0
    0.5021    1.3428   -0.1380 C   0  0  0  0  0  0  0  0  0  0  0  0
    1.9654   -1.3660    1.1616 C   0  0  0  0  0  0  0  0  0  0  0  0
    3.0869   -2.1916    1.2823 C   0  0  0  0  0  0  0  0  0  0  0  0
    0.6878    0.0000    0.0000 Cl  0  0  0  0  0  0  0  0  0  0  0  0
    0.6878    0.0000    0.0000 Cl  0  0  0  0  0  0  0  0  0  0  0  0
    5.9017   -2.8137    0.3782 H   0  0  0  0  0  0  0  0  0  0  0  0
    5.1367   -4.1092   -0.6255 H   0  0  0  0  0  0  0  0  0  0  0  0
    4.9327   -4.1254    1.1601 H   0  0  0  0  0  0  0  0  0  0  0  0
    3.9025   -2.4635   -2.0177 H   0  0  0  0  0  0  0  0  0  0  0  0
    1.9248   -1.0119   -2.2281 H   0  0  0  0  0  0  0  0  0  0  0  0
   -0.4341   -2.6492    0.1401 H   0  0  0  0  0  0  0  0  0  0  0  0
   -2.1187   -2.4711   -0.3344 H   0  0  0  0  0  0  0  0  0  0  0  0
   -0.8022   -3.5933   -1.9732 H   0  0  0  0  0  0  0  0  0  0  0  0
   -1.4834   -2.1920   -2.5927 H   0  0  0  0  0  0  0  0  0  0  0  0
   -3.4402   -1.0943   -1.5464 H   0  0  0  0  0  0  0  0  0  0  0  0
   -4.0201    0.5674   -1.3868 H   0  0  0  0  0  0  0  0  0  0  0  0
   -3.5408   -1.2670    1.0635 H   0  0  0  0  0  0  0  0  0  0  0  0
   -5.0604    1.4048    0.7373 H   0  0  0  0  0  0  0  0  0  0  0  0
   -5.0078    0.3920    2.2320 H   0  0  0  0  0  0  0  0  0  0  0  0
   -3.5029    1.1476    1.6197 H   0  0  0  0  0  0  0  0  0  0  0  0
   -6.0029   -1.5908    1.1038 H   0  0  0  0  0  0  0  0  0  0  0  0
   -5.2866   -2.2462   -0.4082 H   0  0  0  0  0  0  0  0  0  0  0  0
   -6.1674   -0.6677   -0.4420 H   0  0  0  0  0  0  0  0  0  0  0  0
   -1.4076    4.1697   -0.3238 H   0  0  0  0  0  0  0  0  0  0  0  0
    0.7609    5.2252    0.0591 H   0  0  0  0  0  0  0  0  0  0  0  0
    4.2495    5.7254    1.1013 H   0  0  0  0  0  0  0  0  0  0  0  0
    2.4863    5.7867    1.4038 H   0  0  0  0  0  0  0  0  0  0  0  0
    2.6445    1.3574    0.2090 H   0  0  0  0  0  0  0  0  0  0  0  0
    1.4337   -1.0529    2.0517 H   0  0  0  0  0  0  0  0  0  0  0  0
    3.4122   -2.5032    2.2672 H   0  0  0  0  0  0  0  0  0  0  0  0
   -0.6878    0.0000    0.0000 H   0  0  0  0  0  0  0  0  0  0  0  0
   -0.6878    0.0000    0.0000 H   0  0  0  0  0  0  0  0  0  0  0  0
  1  2  1  0
  2  3  2  0
  3  4  1  0
  4  5  2  0
  5  6  1  0
  6  7  2  0
  7  8  1  0
  8  9  1  0
  7 10  1  0
 10 11  1  0
 11 12  1  0
 12 13  1  0
 12 14  1  0
 10 15  2  0
 15 16  1  0
 16 17  2  0
 17 18  1  0
 18 19  2  0
 19 20  1  0
 20 21  1  0
 20 22  2  0
 19 23  1  0
 23 24  2  0
  5 25  1  0
 25 26  2  0
 26  2  1  0
 24  6  1  0
 24 16  1  0
  1 29  1  0
  1 30  1  0
  1 31  1  0
  3 32  1  0
  4 33  1  0
  8 34  1  0
  8 35  1  0
  9 36  1  0
  9 37  1  0
 11 38  1  0
 11 39  1  0
 12 40  1  0
 13 41  1  0
 13 42  1  0
 13 43  1  0
 14 44  1  0
 14 45  1  0
 14 46  1  0
 17 47  1  0
 18 48  1  0
 21 49  1  0
 21 50  1  0
 23 51  1  0
 25 52  1  0
 26 53  1  0
 27 54  1  0
 28 55  1  0
M  END
$$$$
