
     RDKit          3D

 39 41  0  0  0  0  0  0  0  0999 V2000
   -1.2641    3.3886   -0.6330 C   0  0  0  0  0  0  0  0  0  0  0  0
   -1.1616    2.7984    0.7694 C   0  0  0  0  0  0  0  0  0  0  0  0
   -1.9158    1.4926    0.8617 C   0  0  0  0  0  0  0  0  0  0  0  0
   -3.2822    1.5188    1.1807 C   0  0  0  0  0  0  0  0  0  0  0  0
   -4.0141    0.3355    1.2579 C   0  0  0  0  0  0  0  0  0  0  0  0
   -3.3945   -0.8890    1.0154 C   0  0  0  0  0  0  0  0  0  0  0  0
   -2.0308   -0.9481    0.6860 C   0  0  0  0  0  0  0  0  0  0  0  0
   -1.4096   -2.3005    0.4190 C   0  0  0  0  0  0  0  0  0  0  0  0
   -1.7437   -2.7907   -0.9866 C   0  0  0  0  0  0  0  0  0  0  0  0
   -1.2879    0.2547    0.5900 C   0  0  0  0  0  0  0  0  0  0  0  0
    0.1029    0.2264    0.2432 N   0  0  0  0  0  0  0  0  0  0  0  0
    0.6572    0.0697   -1.0641 C   0  0  0  0  0  0  0  0  0  0  0  0
   -0.0014    0.1730   -2.1326 O   0  0  0  0  0  0  0  0  0  0  0  0
    2.0820   -0.2258   -0.9660 C   0  0  0  0  0  0  0  0  0  0  0  0
    3.0337   -0.4532   -1.9572 C   0  0  0  0  0  0  0  0  0  0  0  0
    4.3523   -0.7315   -1.5553 C   0  0  0  0  0  0  0  0  0  0  0  0
    4.6918   -0.7803   -0.1844 C   0  0  0  0  0  0  0  0  0  0  0  0
    6.0051   -1.0599    0.1855 O   0  0  0  0  0  0  0  0  0  0  0  0
    3.7070   -0.5488    0.7982 C   0  0  0  0  0  0  0  0  0  0  0  0
    2.4094   -0.2716    0.3733 C   0  0  0  0  0  0  0  0  0  0  0  0
    1.1941   -0.0067    1.1352 C   0  0  0  0  0  0  0  0  0  0  0  0
    1.0970   -0.0040    2.3909 O   0  0  0  0  0  0  0  0  0  0  0  0
   -0.7128    4.3515   -0.6722 H   0  0  0  0  0  0  0  0  0  0  0  0
   -0.8205    2.6964   -1.3784 H   0  0  0  0  0  0  0  0  0  0  0  0
   -2.3271    3.5765   -0.8956 H   0  0  0  0  0  0  0  0  0  0  0  0
   -0.0921    2.6590    1.0342 H   0  0  0  0  0  0  0  0  0  0  0  0
   -1.5759    3.5279    1.4992 H   0  0  0  0  0  0  0  0  0  0  0  0
   -3.7827    2.4605    1.3702 H   0  0  0  0  0  0  0  0  0  0  0  0
   -5.0670    0.3675    1.5071 H   0  0  0  0  0  0  0  0  0  0  0  0
   -3.9810   -1.7973    1.0820 H   0  0  0  0  0  0  0  0  0  0  0  0
   -1.7941   -3.0371    1.1578 H   0  0  0  0  0  0  0  0  0  0  0  0
   -0.3079   -2.2763    0.5444 H   0  0  0  0  0  0  0  0  0  0  0  0
   -1.2678   -3.7791   -1.1579 H   0  0  0  0  0  0  0  0  0  0  0  0
   -2.8424   -2.9011   -1.1071 H   0  0  0  0  0  0  0  0  0  0  0  0
   -1.3644   -2.0786   -1.7477 H   0  0  0  0  0  0  0  0  0  0  0  0
    2.7672   -0.4183   -3.0055 H   0  0  0  0  0  0  0  0  0  0  0  0
    5.1117   -0.9113   -2.3054 H   0  0  0  0  0  0  0  0  0  0  0  0
    6.2825   -1.1029    1.1591 H   0  0  0  0  0  0  0  0  0  0  0  0
    3.9478   -0.5854    1.8529 H   0  0  0  0  0  0  0  0  0  0  0  0
  1  2  1  0
  2  3  1  0
  3  4  2  0
  4  5  1  0
  5  6  2  0
  6  7  1  0
  7  8  1  0
  8  9  1  0
  7 10  2  0
 10 11  1  0
 11 12  1  0
 12 13  2  0
 12 14  1  0
 14 15  2  0
 15 16  1  0
 16 17  2  0
 17 18  1  0
 17 19  1  0
 19 20  2  0
 20 21  1  0
 21 22  2  0
 10  3  1  0
 21 11  1  0
 20 14  1  0
  1 23  1  0
  1 24  1  0
  1 25  1  0
  2 26  1  0
  2 27  1  0
  4 28  1  0
  5 29  1  0
  6 30  1  0
  8 31  1  0
  8 32  1  0
  9 33  1  0
  9 34  1  0
  9 35  1  0
 15 36  1  0
 16 37  1  0
 18 38  1  0
 19 39  1  0
M  END
$$$$
