
     RDKit          3D

 57 60  0  0  0  0  0  0  0  0999 V2000
    6.8208    0.3008    0.6493 C   0  0  0  0  0  0  0  0  0  0  0  0
    6.6132   -1.0634   -0.0440 C   0  0  0  0  0  0  0  0  0  0  0  0
    7.8959   -1.4288   -0.8071 C   0  0  0  0  0  0  0  0  0  0  0  0
    6.3868   -2.0704    0.9147 O   0  0  0  0  0  0  0  0  0  0  0  0
    5.4343   -1.0073   -1.0487 C   0  0  0  0  0  0  0  0  0  0  0  0
    4.1723   -0.6672   -0.3929 N   0  0  0  0  0  0  0  0  0  0  0  0
    3.2665   -1.5477    0.0882 C   0  0  0  0  0  0  0  0  0  0  0  0
    2.1981   -0.8139    0.5522 C   0  0  0  0  0  0  0  0  0  0  0  0
    2.4921    0.4651    0.2889 C   0  0  0  0  0  0  0  0  0  0  0  0
    3.6804    0.5644   -0.3350 N   0  0  0  0  0  0  0  0  0  0  0  0
    1.2670    1.2386    0.0216 C   0  0  0  0  0  0  0  0  0  0  0  0
    0.1874    0.2180   -0.0955 N   0  0  0  0  0  0  0  0  0  0  0  0
   -1.0973    0.6334    0.5358 C   0  0  1  0  0  0  0  0  0  0  0  0
   -1.5387    2.0310    0.0058 C   0  0  0  0  0  0  0  0  0  0  0  0
   -3.0421    2.3113    0.0937 C   0  0  0  0  0  0  0  0  0  0  0  0
   -3.6970    1.8904   -1.0915 O   0  0  0  0  0  0  0  0  0  0  0  0
   -4.1475    0.5435   -1.0299 C   0  0  2  0  0  0  0  0  0  0  0  0
   -5.2897    0.3575   -0.0123 C   0  0  0  0  0  0  0  0  0  0  0  0
   -6.1679    1.4439    0.2008 C   0  0  0  0  0  0  0  0  0  0  0  0
   -7.2522    1.3378    1.0747 C   0  0  0  0  0  0  0  0  0  0  0  0
   -8.0668    2.4028    1.2763 F   0  0  0  0  0  0  0  0  0  0  0  0
   -7.5042    0.1359    1.7316 C   0  0  0  0  0  0  0  0  0  0  0  0
   -6.6829   -0.9661    1.5022 C   0  0  0  0  0  0  0  0  0  0  0  0
   -5.5942   -0.8731    0.6278 C   0  0  0  0  0  0  0  0  0  0  0  0
   -4.8681   -1.9970    0.4245 F   0  0  0  0  0  0  0  0  0  0  0  0
   -2.9492   -0.4566   -1.0019 C   0  0  1  0  0  0  0  0  0  0  0  0
   -2.0271   -0.1806   -2.1083 N   0  0  0  0  0  0  0  0  0  0  0  0
   -2.1979   -0.4612    0.3537 C   0  0  0  0  0  0  0  0  0  0  0  0
    0.7459   -1.0475    0.4577 C   0  0  0  0  0  0  0  0  0  0  0  0
    7.6936    0.2551    1.3355 H   0  0  0  0  0  0  0  0  0  0  0  0
    5.9315    0.5808    1.2521 H   0  0  0  0  0  0  0  0  0  0  0  0
    7.0015    1.0989   -0.1028 H   0  0  0  0  0  0  0  0  0  0  0  0
    7.7815   -2.4148   -1.3070 H   0  0  0  0  0  0  0  0  0  0  0  0
    8.7567   -1.4969   -0.1074 H   0  0  0  0  0  0  0  0  0  0  0  0
    8.1281   -0.6646   -1.5804 H   0  0  0  0  0  0  0  0  0  0  0  0
    5.6549   -1.7721    1.5150 H   0  0  0  0  0  0  0  0  0  0  0  0
    5.6473   -0.2538   -1.8394 H   0  0  0  0  0  0  0  0  0  0  0  0
    5.3292   -1.9915   -1.5573 H   0  0  0  0  0  0  0  0  0  0  0  0
    3.3168   -2.6220   -0.0346 H   0  0  0  0  0  0  0  0  0  0  0  0
    1.1069    1.9308    0.8768 H   0  0  0  0  0  0  0  0  0  0  0  0
    1.3591    1.8057   -0.9289 H   0  0  0  0  0  0  0  0  0  0  0  0
   -0.9351    0.7390    1.6337 H   0  0  0  0  0  0  0  0  0  0  0  0
   -1.0156    2.8132    0.5978 H   0  0  0  0  0  0  0  0  0  0  0  0
   -1.2139    2.1640   -1.0495 H   0  0  0  0  0  0  0  0  0  0  0  0
   -3.4817    1.9032    1.0300 H   0  0  0  0  0  0  0  0  0  0  0  0
   -3.1782    3.4115    0.1630 H   0  0  0  0  0  0  0  0  0  0  0  0
   -4.6448    0.3566   -2.0065 H   0  0  0  0  0  0  0  0  0  0  0  0
   -6.0154    2.3851   -0.3119 H   0  0  0  0  0  0  0  0  0  0  0  0
   -8.3458    0.0521    2.4071 H   0  0  0  0  0  0  0  0  0  0  0  0
   -6.8978   -1.9044    1.9979 H   0  0  0  0  0  0  0  0  0  0  0  0
   -3.3510   -1.4762   -1.1795 H   0  0  0  0  0  0  0  0  0  0  0  0
   -2.5529   -0.2545   -3.0096 H   0  0  0  0  0  0  0  0  0  0  0  0
   -1.3082   -0.9403   -2.1345 H   0  0  0  0  0  0  0  0  0  0  0  0
   -1.7715   -1.4737    0.4988 H   0  0  0  0  0  0  0  0  0  0  0  0
   -2.9250   -0.3631    1.1861 H   0  0  0  0  0  0  0  0  0  0  0  0
    0.5309   -1.8902   -0.2336 H   0  0  0  0  0  0  0  0  0  0  0  0
    0.3610   -1.2713    1.4773 H   0  0  0  0  0  0  0  0  0  0  0  0
  1  2  1  0
  2  3  1  0
  2  4  1  0
  2  5  1  0
  5  6  1  0
  6  7  1  0
  7  8  2  0
  8  9  1  0
  9 10  2  0
  9 11  1  0
 11 12  1  0
 12 13  1  0
 13 14  1  0
 14 15  1  0
 15 16  1  0
 16 17  1  0
 17 18  1  0
 18 19  2  0
 19 20  1  0
 20 21  1  0
 20 22  2  0
 22 23  1  0
 23 24  2  0
 24 25  1  0
 17 26  1  0
 26 27  1  0
 26 28  1  0
 12 29  1  0
 10  6  1  0
 28 13  1  0
 29  8  1  0
 24 18  1  0
  1 30  1  0
  1 31  1  0
  1 32  1  0
  3 33  1  0
  3 34  1  0
  3 35  1  0
  4 36  1  0
  5 37  1  0
  5 38  1  0
  7 39  1  0
 11 40  1  0
 11 41  1  0
 13 42  1  1
 14 43  1  0
 14 44  1  0
 15 45  1  0
 15 46  1  0
 17 47  1  6
 19 48  1  0
 22 49  1  0
 23 50  1  0
 26 51  1  6
 27 52  1  0
 27 53  1  0
 28 54  1  0
 28 55  1  0
 29 56  1  0
 29 57  1  0
M  END
$$$$
