
     RDKit          3D

 35 37  0  0  0  0  0  0  0  0999 V2000
   -1.7248   -1.2715    2.0187 C   0  0  0  0  0  0  0  0  0  0  0  0
   -2.3998   -0.3749    1.0167 C   0  0  0  0  0  0  0  0  0  0  0  0
   -3.7625   -0.0716    1.1608 C   0  0  0  0  0  0  0  0  0  0  0  0
   -4.4014    0.7626    0.2432 C   0  0  0  0  0  0  0  0  0  0  0  0
   -3.6880    1.3118   -0.8223 C   0  0  0  0  0  0  0  0  0  0  0  0
   -2.3200    1.0393   -0.9769 C   0  0  0  0  0  0  0  0  0  0  0  0
   -1.5648    1.6365   -2.1328 C   0  0  0  0  0  0  0  0  0  0  0  0
   -1.6714    0.1881   -0.0550 C   0  0  0  0  0  0  0  0  0  0  0  0
   -0.2712   -0.1045   -0.2085 N   0  0  0  0  0  0  0  0  0  0  0  0
    0.1486   -1.1608   -1.0879 C   0  0  0  0  0  0  0  0  0  0  0  0
   -0.7089   -1.9159   -1.6221 O   0  0  0  0  0  0  0  0  0  0  0  0
    1.5962   -1.3415   -1.4453 C   0  0  0  0  0  0  0  0  0  0  0  0
    2.5460   -0.7357   -0.4404 C   0  0  0  0  0  0  0  0  0  0  0  0
    3.9017   -1.1011   -0.4885 C   0  0  0  0  0  0  0  0  0  0  0  0
    4.8261   -0.5134    0.3777 C   0  0  0  0  0  0  0  0  0  0  0  0
    4.4101    0.4550    1.2916 C   0  0  0  0  0  0  0  0  0  0  0  0
    3.0682    0.8385    1.3432 C   0  0  0  0  0  0  0  0  0  0  0  0
    2.1268    0.2501    0.4791 C   0  0  0  0  0  0  0  0  0  0  0  0
    0.7033    0.6347    0.5429 C   0  0  0  0  0  0  0  0  0  0  0  0
    0.3394    1.6007    1.2692 O   0  0  0  0  0  0  0  0  0  0  0  0
   -1.1520   -2.0657    1.4953 H   0  0  0  0  0  0  0  0  0  0  0  0
   -2.4631   -1.7669    2.6846 H   0  0  0  0  0  0  0  0  0  0  0  0
   -1.0307   -0.6734    2.6451 H   0  0  0  0  0  0  0  0  0  0  0  0
   -4.3348   -0.4843    1.9825 H   0  0  0  0  0  0  0  0  0  0  0  0
   -5.4545    0.9846    0.3585 H   0  0  0  0  0  0  0  0  0  0  0  0
   -4.2045    1.9543   -1.5246 H   0  0  0  0  0  0  0  0  0  0  0  0
   -0.6425    2.1353   -1.7673 H   0  0  0  0  0  0  0  0  0  0  0  0
   -2.1734    2.3946   -2.6701 H   0  0  0  0  0  0  0  0  0  0  0  0
   -1.2868    0.8357   -2.8494 H   0  0  0  0  0  0  0  0  0  0  0  0
    1.7752   -0.8680   -2.4337 H   0  0  0  0  0  0  0  0  0  0  0  0
    1.8061   -2.4295   -1.5390 H   0  0  0  0  0  0  0  0  0  0  0  0
    4.2440   -1.8393   -1.2035 H   0  0  0  0  0  0  0  0  0  0  0  0
    5.8677   -0.8045    0.3354 H   0  0  0  0  0  0  0  0  0  0  0  0
    5.1288    0.9105    1.9606 H   0  0  0  0  0  0  0  0  0  0  0  0
    2.7670    1.5901    2.0621 H   0  0  0  0  0  0  0  0  0  0  0  0
  1  2  1  0
  2  3  2  0
  3  4  1  0
  4  5  2  0
  5  6  1  0
  6  7  1  0
  6  8  2  0
  8  9  1  0
  9 10  1  0
 10 11  2  0
 10 12  1  0
 12 13  1  0
 13 14  2  0
 14 15  1  0
 15 16  2  0
 16 17  1  0
 17 18  2  0
 18 19  1  0
 19 20  2  0
  8  2  1  0
 19  9  1  0
 18 13  1  0
  1 21  1  0
  1 22  1  0
  1 23  1  0
  3 24  1  0
  4 25  1  0
  5 26  1  0
  7 27  1  0
  7 28  1  0
  7 29  1  0
 12 30  1  0
 12 31  1  0
 14 32  1  0
 15 33  1  0
 16 34  1  0
 17 35  1  0
M  END
$$$$
