
     RDKit          3D

 36 39  0  0  0  0  0  0  0  0999 V2000
   -1.3858   -2.0692    0.4900 C   0  0  0  0  0  0  0  0  0  0  0  0
   -0.8742   -0.7030    0.1291 C   0  0  0  0  0  0  0  0  0  0  0  0
    0.4809   -0.5231    0.0614 N   0  0  0  0  0  0  0  0  0  0  0  0
    0.9619    0.6907   -0.2903 C   0  0  0  0  0  0  0  0  0  0  0  0
    0.1468    1.7377   -0.5455 C   0  0  0  0  0  0  0  0  0  0  0  0
    0.9821    2.8052   -0.7962 C   0  0  0  0  0  0  0  0  0  0  0  0
    2.2633    2.3742   -0.6801 N   0  0  0  0  0  0  0  0  0  0  0  0
    2.2491    1.0779   -0.3768 N   0  0  0  0  0  0  0  0  0  0  0  0
    3.4371    0.2943   -0.1570 C   0  0  0  0  0  0  0  0  0  0  0  0
    3.4637   -1.0858   -0.4350 C   0  0  0  0  0  0  0  0  0  0  0  0
    4.6303   -1.8272   -0.2231 C   0  0  0  0  0  0  0  0  0  0  0  0
    5.7817   -1.2008    0.2591 C   0  0  0  0  0  0  0  0  0  0  0  0
    5.7711    0.1705    0.5239 C   0  0  0  0  0  0  0  0  0  0  0  0
    4.6075    0.9163    0.3127 C   0  0  0  0  0  0  0  0  0  0  0  0
   -1.2289    1.5904   -0.4713 C   0  0  0  0  0  0  0  0  0  0  0  0
   -1.9881    2.5725   -0.6997 O   0  0  0  0  0  0  0  0  0  0  0  0
   -1.7347    0.3567   -0.1268 N   0  0  0  0  0  0  0  0  0  0  0  0
   -3.1613    0.1877   -0.0427 C   0  0  0  0  0  0  0  0  0  0  0  0
   -3.7826   -0.0216    1.1971 C   0  0  0  0  0  0  0  0  0  0  0  0
   -5.1700   -0.1679    1.2513 C   0  0  0  0  0  0  0  0  0  0  0  0
   -5.9223   -0.0961    0.0775 C   0  0  0  0  0  0  0  0  0  0  0  0
   -5.2716    0.1258   -1.1384 C   0  0  0  0  0  0  0  0  0  0  0  0
   -3.9192    0.2645   -1.1720 N   0  0  0  0  0  0  0  0  0  0  0  0
   -0.5711   -2.8204    0.4132 H   0  0  0  0  0  0  0  0  0  0  0  0
   -2.1992   -2.3721   -0.2021 H   0  0  0  0  0  0  0  0  0  0  0  0
   -1.7634   -2.0662    1.5330 H   0  0  0  0  0  0  0  0  0  0  0  0
    0.6907    3.8213   -1.0263 H   0  0  0  0  0  0  0  0  0  0  0  0
    2.5973   -1.5885   -0.8411 H   0  0  0  0  0  0  0  0  0  0  0  0
    4.6436   -2.8875   -0.4406 H   0  0  0  0  0  0  0  0  0  0  0  0
    6.6838   -1.7765    0.4213 H   0  0  0  0  0  0  0  0  0  0  0  0
    6.6652    0.6563    0.8929 H   0  0  0  0  0  0  0  0  0  0  0  0
    4.6155    1.9774    0.5271 H   0  0  0  0  0  0  0  0  0  0  0  0
   -3.1975   -0.0635    2.1069 H   0  0  0  0  0  0  0  0  0  0  0  0
   -5.6614   -0.3325    2.2014 H   0  0  0  0  0  0  0  0  0  0  0  0
   -6.9984   -0.2068    0.1098 H   0  0  0  0  0  0  0  0  0  0  0  0
   -5.8419    0.1892   -2.0555 H   0  0  0  0  0  0  0  0  0  0  0  0
  1  2  1  0
  2  3  2  0
  3  4  1  0
  4  5  2  0
  5  6  1  0
  6  7  2  0
  7  8  1  0
  8  9  1  0
  9 10  2  0
 10 11  1  0
 11 12  2  0
 12 13  1  0
 13 14  2  0
  5 15  1  0
 15 16  2  0
 15 17  1  0
 17 18  1  0
 18 19  2  0
 19 20  1  0
 20 21  2  0
 21 22  1  0
 22 23  2  0
 17  2  1  0
 23 18  1  0
  8  4  1  0
 14  9  1  0
  1 24  1  0
  1 25  1  0
  1 26  1  0
  6 27  1  0
 10 28  1  0
 11 29  1  0
 12 30  1  0
 13 31  1  0
 14 32  1  0
 19 33  1  0
 20 34  1  0
 21 35  1  0
 22 36  1  0
M  END
$$$$
