
     RDKit          3D

 69 71  0  0  0  0  0  0  0  0999 V2000
   10.5118    2.6231   -1.8001 C   0  0  0  0  0  0  0  0  0  0  0  0
    9.0667    2.3018   -2.1456 C   0  0  0  0  0  0  0  0  0  0  0  0
    8.5883    1.2723   -1.2865 O   0  0  0  0  0  0  0  0  0  0  0  0
    7.2879    0.7666   -1.3684 C   0  0  0  0  0  0  0  0  0  0  0  0
    6.4727    1.2292   -2.2135 O   0  0  0  0  0  0  0  0  0  0  0  0
    6.8534   -0.2998   -0.4044 C   0  0  0  0  0  0  0  0  0  0  0  0
    6.1359    0.3231    0.8084 C   0  0  0  0  0  0  0  0  0  0  0  0
    4.8169    0.7457    0.4537 O   0  0  0  0  0  0  0  0  0  0  0  0
    4.0208   -0.0192   -0.4037 C   0  0  0  0  0  0  0  0  0  0  0  0
    2.6509    0.2315   -0.5195 C   0  0  0  0  0  0  0  0  0  0  0  0
    1.8593   -0.5629   -1.3660 C   0  0  0  0  0  0  0  0  0  0  0  0
    0.3791   -0.3137   -1.4601 C   0  0  0  0  0  0  0  0  0  0  0  0
   -0.2738   -0.6822   -0.2071 N   0  0  0  0  0  0  0  0  0  0  0  0
   -0.4647   -2.0480    0.1905 C   0  0  0  0  0  0  0  0  0  0  0  0
   -0.0790   -2.9871   -0.5571 O   0  0  0  0  0  0  0  0  0  0  0  0
   -1.1324   -2.3719    1.4966 C   0  0  0  0  0  0  0  0  0  0  0  0
   -0.1710   -1.6349    2.8529 S   0  0  0  0  0  0  0  0  0  0  0  0
   -1.6847   -1.0949    3.6902 C   0  0  0  0  0  0  0  0  0  0  0  0
   -2.7888   -0.9478    2.6561 C   0  0  0  0  0  0  0  0  0  0  0  0
   -2.4896   -1.8300    1.5352 N   0  0  0  0  0  0  0  0  0  0  0  0
   -3.4895   -2.2324    0.5723 C   0  0  0  0  0  0  0  0  0  0  0  0
   -3.2668   -3.2216   -0.1779 O   0  0  0  0  0  0  0  0  0  0  0  0
   -4.7850   -1.4803    0.3926 C   0  0  0  0  0  0  0  0  0  0  0  0
   -4.7415   -0.5562   -0.8439 C   0  0  2  0  0  0  0  0  0  0  0  0
   -3.8575    0.5875   -0.6032 N   0  0  0  0  0  0  0  0  0  0  0  0
   -6.1557   -0.0704   -1.2389 C   0  0  0  0  0  0  0  0  0  0  0  0
   -6.8165    0.7770   -0.1740 C   0  0  0  0  0  0  0  0  0  0  0  0
   -7.6254    0.1707    0.8034 C   0  0  0  0  0  0  0  0  0  0  0  0
   -8.2211    0.9404    1.8071 C   0  0  0  0  0  0  0  0  0  0  0  0
   -8.9953    0.3432    2.7466 F   0  0  0  0  0  0  0  0  0  0  0  0
   -8.0177    2.3227    1.8424 C   0  0  0  0  0  0  0  0  0  0  0  0
   -8.5948    3.0706    2.8153 F   0  0  0  0  0  0  0  0  0  0  0  0
   -7.2206    2.9361    0.8726 C   0  0  0  0  0  0  0  0  0  0  0  0
   -6.6210    2.1712   -0.1334 C   0  0  0  0  0  0  0  0  0  0  0  0
   -5.8606    2.7930   -1.0696 F   0  0  0  0  0  0  0  0  0  0  0  0
    2.4565   -1.6104   -2.0895 C   0  0  0  0  0  0  0  0  0  0  0  0
    3.8311   -1.8478   -1.9832 C   0  0  0  0  0  0  0  0  0  0  0  0
    4.6146   -1.0435   -1.1523 C   0  0  0  0  0  0  0  0  0  0  0  0
    5.9970   -1.2435   -1.0606 O   0  0  0  0  0  0  0  0  0  0  0  0
    0.6878    0.0000    0.0000 Cl  0  0  0  0  0  0  0  0  0  0  0  0
   10.8877    3.4260   -2.4687 H   0  0  0  0  0  0  0  0  0  0  0  0
   10.5823    2.9678   -0.7467 H   0  0  0  0  0  0  0  0  0  0  0  0
   11.1433    1.7189   -1.9313 H   0  0  0  0  0  0  0  0  0  0  0  0
    8.4468    3.2157   -2.0179 H   0  0  0  0  0  0  0  0  0  0  0  0
    9.0079    1.9654   -3.2036 H   0  0  0  0  0  0  0  0  0  0  0  0
    7.7586   -0.8374   -0.0491 H   0  0  0  0  0  0  0  0  0  0  0  0
    6.7092    1.1854    1.2115 H   0  0  0  0  0  0  0  0  0  0  0  0
    6.0585   -0.4425    1.6101 H   0  0  0  0  0  0  0  0  0  0  0  0
    2.2021    1.0301    0.0587 H   0  0  0  0  0  0  0  0  0  0  0  0
    0.2087    0.7667   -1.6588 H   0  0  0  0  0  0  0  0  0  0  0  0
   -0.0791   -0.8766   -2.3024 H   0  0  0  0  0  0  0  0  0  0  0  0
   -0.6071    0.0827    0.4221 H   0  0  0  0  0  0  0  0  0  0  0  0
   -1.1711   -3.4725    1.6500 H   0  0  0  0  0  0  0  0  0  0  0  0
   -1.9658   -1.8706    4.4344 H   0  0  0  0  0  0  0  0  0  0  0  0
   -1.5082   -0.1339    4.2177 H   0  0  0  0  0  0  0  0  0  0  0  0
   -3.7543   -1.2297    3.1289 H   0  0  0  0  0  0  0  0  0  0  0  0
   -2.8423    0.1015    2.2939 H   0  0  0  0  0  0  0  0  0  0  0  0
   -5.0383   -0.8863    1.2923 H   0  0  0  0  0  0  0  0  0  0  0  0
   -5.5954   -2.2306    0.2642 H   0  0  0  0  0  0  0  0  0  0  0  0
   -4.3468   -1.1411   -1.7070 H   0  0  0  0  0  0  0  0  0  0  0  0
   -3.7997    1.1479   -1.4845 H   0  0  0  0  0  0  0  0  0  0  0  0
   -2.8898    0.2314   -0.4406 H   0  0  0  0  0  0  0  0  0  0  0  0
   -6.7951   -0.9516   -1.4667 H   0  0  0  0  0  0  0  0  0  0  0  0
   -6.0914    0.5061   -2.1875 H   0  0  0  0  0  0  0  0  0  0  0  0
   -7.7903   -0.8995    0.7902 H   0  0  0  0  0  0  0  0  0  0  0  0
   -7.0675    4.0074    0.8995 H   0  0  0  0  0  0  0  0  0  0  0  0
    1.8600   -2.2407   -2.7372 H   0  0  0  0  0  0  0  0  0  0  0  0
    4.2873   -2.6471   -2.5531 H   0  0  0  0  0  0  0  0  0  0  0  0
   -0.6878    0.0000    0.0000 H   0  0  0  0  0  0  0  0  0  0  0  0
  1  2  1  0
  2  3  1  0
  3  4  1  0
  4  5  2  0
  4  6  1  0
  6  7  1  0
  7  8  1  0
  8  9  1  0
  9 10  2  0
 10 11  1  0
 11 12  1  0
 12 13  1  0
 13 14  1  0
 14 15  2  0
 14 16  1  0
 16 17  1  0
 17 18  1  0
 18 19  1  0
 19 20  1  0
 20 21  1  0
 21 22  2  0
 21 23  1  0
 23 24  1  0
 24 25  1  0
 24 26  1  0
 26 27  1  0
 27 28  2  0
 28 29  1  0
 29 30  1  0
 29 31  2  0
 31 32  1  0
 31 33  1  0
 33 34  2  0
 34 35  1  0
 11 36  2  0
 36 37  1  0
 37 38  2  0
 38 39  1  0
 39  6  1  0
 38  9  1  0
 20 16  1  0
 34 27  1  0
  1 41  1  0
  1 42  1  0
  1 43  1  0
  2 44  1  0
  2 45  1  0
  6 46  1  0
  7 47  1  0
  7 48  1  0
 10 49  1  0
 12 50  1  0
 12 51  1  0
 13 52  1  0
 16 53  1  0
 18 54  1  0
 18 55  1  0
 19 56  1  0
 19 57  1  0
 23 58  1  0
 23 59  1  0
 24 60  1  6
 25 61  1  0
 25 62  1  0
 26 63  1  0
 26 64  1  0
 28 65  1  0
 33 66  1  0
 36 67  1  0
 37 68  1  0
 40 69  1  0
M  END
$$$$
