
     RDKit          3D

 45 46  0  0  0  0  0  0  0  0999 V2000
    0.1511   -1.4223    1.9795 C   0  0  0  0  0  0  0  0  0  0  0  0
   -0.2183   -0.5087    0.7955 C   0  0  2  0  0  0  0  0  0  0  0  0
   -0.5606   -1.3078   -0.4864 C   0  0  0  0  0  0  0  0  0  0  0  0
   -1.8847   -2.0887   -0.4048 C   0  0  0  0  0  0  0  0  0  0  0  0
   -3.0819   -1.1793   -0.2887 C   0  0  0  0  0  0  0  0  0  0  0  0
   -3.7373   -1.0188    0.9411 C   0  0  0  0  0  0  0  0  0  0  0  0
   -4.8341   -0.1598    1.0502 C   0  0  0  0  0  0  0  0  0  0  0  0
   -5.2915    0.5628   -0.0665 C   0  0  0  0  0  0  0  0  0  0  0  0
   -6.4591    1.4684    0.0654 C   0  0  0  0  0  0  0  0  0  0  0  0
   -6.6784    2.5449   -0.8504 N   0  0  0  0  0  0  0  0  0  0  0  0
   -7.2743    1.3005    1.0124 O   0  0  0  0  0  0  0  0  0  0  0  0
   -4.6365    0.3917   -1.2999 C   0  0  0  0  0  0  0  0  0  0  0  0
   -3.5398   -0.4684   -1.4075 C   0  0  0  0  0  0  0  0  0  0  0  0
    0.8191    0.5087    0.5205 N   0  0  0  0  0  0  0  0  0  0  0  0
    2.1729   -0.0363    0.3201 C   0  0  0  0  0  0  0  0  0  0  0  0
    3.0950    1.0170   -0.2398 C   0  0  0  0  0  0  0  0  0  0  0  0
    2.6011    2.0846   -0.6978 O   0  0  0  0  0  0  0  0  0  0  0  0
    4.5676    0.8115   -0.2979 C   0  0  0  0  0  0  0  0  0  0  0  0
    5.1463   -0.4420   -0.0120 C   0  0  0  0  0  0  0  0  0  0  0  0
    6.5324   -0.6147   -0.0741 C   0  0  0  0  0  0  0  0  0  0  0  0
    7.3589    0.4552   -0.4228 C   0  0  0  0  0  0  0  0  0  0  0  0
    8.7024    0.2811   -0.4816 F   0  0  0  0  0  0  0  0  0  0  0  0
    6.7999    1.7022   -0.7126 C   0  0  0  0  0  0  0  0  0  0  0  0
    7.6007    2.7426   -1.0525 F   0  0  0  0  0  0  0  0  0  0  0  0
    5.4140    1.8806   -0.6524 C   0  0  0  0  0  0  0  0  0  0  0  0
    0.5154   -0.8123    2.8331 H   0  0  0  0  0  0  0  0  0  0  0  0
    0.9385   -2.1509    1.6923 H   0  0  0  0  0  0  0  0  0  0  0  0
   -0.7403   -1.9852    2.3256 H   0  0  0  0  0  0  0  0  0  0  0  0
   -1.1306    0.0502    1.0975 H   0  0  0  0  0  0  0  0  0  0  0  0
   -0.6096   -0.6088   -1.3501 H   0  0  0  0  0  0  0  0  0  0  0  0
    0.2472   -2.0382   -0.7038 H   0  0  0  0  0  0  0  0  0  0  0  0
   -1.8532   -2.8116    0.4379 H   0  0  0  0  0  0  0  0  0  0  0  0
   -1.9913   -2.6976   -1.3289 H   0  0  0  0  0  0  0  0  0  0  0  0
   -3.3956   -1.5542    1.8183 H   0  0  0  0  0  0  0  0  0  0  0  0
   -5.3174   -0.0511    2.0132 H   0  0  0  0  0  0  0  0  0  0  0  0
   -5.9587    2.8266   -1.5510 H   0  0  0  0  0  0  0  0  0  0  0  0
   -7.5397    3.1296   -0.7687 H   0  0  0  0  0  0  0  0  0  0  0  0
   -4.9790    0.9006   -2.1904 H   0  0  0  0  0  0  0  0  0  0  0  0
   -3.0490   -0.5844   -2.3661 H   0  0  0  0  0  0  0  0  0  0  0  0
    0.8525    1.1720    1.3311 H   0  0  0  0  0  0  0  0  0  0  0  0
    2.1566   -0.8816   -0.3972 H   0  0  0  0  0  0  0  0  0  0  0  0
    2.5834   -0.3887    1.2917 H   0  0  0  0  0  0  0  0  0  0  0  0
    4.5356   -1.2951    0.2508 H   0  0  0  0  0  0  0  0  0  0  0  0
    6.9651   -1.5821    0.1466 H   0  0  0  0  0  0  0  0  0  0  0  0
    5.0054    2.8577   -0.8783 H   0  0  0  0  0  0  0  0  0  0  0  0
  1  2  1  0
  2  3  1  0
  3  4  1  0
  4  5  1  0
  5  6  2  0
  6  7  1  0
  7  8  2  0
  8  9  1  0
  9 10  1  0
  9 11  2  0
  8 12  1  0
 12 13  2  0
  2 14  1  0
 14 15  1  0
 15 16  1  0
 16 17  2  0
 16 18  1  0
 18 19  2  0
 19 20  1  0
 20 21  2  0
 21 22  1  0
 21 23  1  0
 23 24  1  0
 23 25  2  0
 13  5  1  0
 25 18  1  0
  1 26  1  0
  1 27  1  0
  1 28  1  0
  2 29  1  1
  3 30  1  0
  3 31  1  0
  4 32  1  0
  4 33  1  0
  6 34  1  0
  7 35  1  0
 10 36  1  0
 10 37  1  0
 12 38  1  0
 13 39  1  0
 14 40  1  0
 15 41  1  0
 15 42  1  0
 19 43  1  0
 20 44  1  0
 25 45  1  0
M  END
$$$$
