
     RDKit          3D

 45 45  0  0  0  0  0  0  0  0999 V2000
    2.2922   -2.5957   -0.9023 C   0  0  0  0  0  0  0  0  0  0  0  0
    1.3103   -1.7267   -0.0969 C   0  0  1  0  0  0  0  0  0  0  0  0
    1.5566   -0.2332   -0.2894 C   0  0  0  0  0  0  0  0  0  0  0  0
    1.6454    0.5917    0.8499 C   0  0  0  0  0  0  0  0  0  0  0  0
    1.8381    1.9691    0.7223 C   0  0  0  0  0  0  0  0  0  0  0  0
    1.9442    2.5465   -0.5424 C   0  0  0  0  0  0  0  0  0  0  0  0
    1.8592    1.7474   -1.6828 C   0  0  0  0  0  0  0  0  0  0  0  0
    1.6653    0.3666   -1.5667 C   0  0  0  0  0  0  0  0  0  0  0  0
    1.5665   -0.3634   -2.7040 F   0  0  0  0  0  0  0  0  0  0  0  0
   -0.1740   -2.1459   -0.3068 C   0  0  2  0  0  0  0  0  0  0  0  0
   -0.6834   -1.7723   -1.6277 N   0  0  0  0  0  0  0  0  0  0  0  0
   -1.0492   -1.5963    0.8065 C   0  0  0  0  0  0  0  0  0  0  0  0
   -1.2842   -2.3437    1.7949 O   0  0  0  0  0  0  0  0  0  0  0  0
   -1.5225   -0.2342    0.8379 N   0  0  0  0  0  0  0  0  0  0  0  0
   -1.8809    0.5627   -0.3252 C   0  0  0  0  0  0  0  0  0  0  0  0
   -2.5366    1.8249    0.2206 C   0  0  0  0  0  0  0  0  0  0  0  0
   -2.1860    1.8725    1.7051 C   0  0  2  0  0  0  0  0  0  0  0  0
   -1.0950    2.7035    1.9013 F   0  0  0  0  0  0  0  0  0  0  0  0
   -1.8233    0.4439    2.0872 C   0  0  0  0  0  0  0  0  0  0  0  0
    0.8541    0.8509   -1.2267 O   0  0  0  0  0  0  0  0  0  0  0  0
    0.4820    0.1042   -0.2823 C   0  0  0  0  0  0  0  0  0  0  0  0
    1.4167   -0.6689    0.3999 O   0  0  0  0  0  0  0  0  0  0  0  0
   -0.9505    0.0941    0.1430 C   0  0  0  0  0  0  0  0  0  0  0  0
   -1.2402   -1.0876    0.8005 F   0  0  0  0  0  0  0  0  0  0  0  0
   -1.7729    0.2067   -0.9634 F   0  0  0  0  0  0  0  0  0  0  0  0
   -1.1835    1.1573    0.9947 F   0  0  0  0  0  0  0  0  0  0  0  0
    2.2273   -3.6510   -0.5608 H   0  0  0  0  0  0  0  0  0  0  0  0
    2.0821   -2.5808   -1.9887 H   0  0  0  0  0  0  0  0  0  0  0  0
    3.3339   -2.2468   -0.7359 H   0  0  0  0  0  0  0  0  0  0  0  0
    1.5520   -1.9728    0.9630 H   0  0  0  0  0  0  0  0  0  0  0  0
    1.5550    0.1701    1.8432 H   0  0  0  0  0  0  0  0  0  0  0  0
    1.8999    2.5901    1.6065 H   0  0  0  0  0  0  0  0  0  0  0  0
    2.0900    3.6146   -0.6392 H   0  0  0  0  0  0  0  0  0  0  0  0
    1.9372    2.2012   -2.6625 H   0  0  0  0  0  0  0  0  0  0  0  0
   -0.2187   -3.2579   -0.2298 H   0  0  0  0  0  0  0  0  0  0  0  0
   -0.1673   -2.3202   -2.3522 H   0  0  0  0  0  0  0  0  0  0  0  0
   -1.6742   -2.1010   -1.6980 H   0  0  0  0  0  0  0  0  0  0  0  0
   -0.9747    0.8275   -0.9042 H   0  0  0  0  0  0  0  0  0  0  0  0
   -2.6000    0.0114   -0.9678 H   0  0  0  0  0  0  0  0  0  0  0  0
   -3.6406    1.7512    0.1050 H   0  0  0  0  0  0  0  0  0  0  0  0
   -2.1782    2.7314   -0.3145 H   0  0  0  0  0  0  0  0  0  0  0  0
   -3.0413    2.2459    2.3091 H   0  0  0  0  0  0  0  0  0  0  0  0
   -0.9403    0.4237    2.7623 H   0  0  0  0  0  0  0  0  0  0  0  0
   -2.6850   -0.0539    2.5830 H   0  0  0  0  0  0  0  0  0  0  0  0
    2.3943   -0.6567    0.1342 H   0  0  0  0  0  0  0  0  0  0  0  0
  1  2  1  0
  2  3  1  0
  3  4  2  0
  4  5  1  0
  5  6  2  0
  6  7  1  0
  7  8  2  0
  8  9  1  0
  2 10  1  0
 10 11  1  0
 10 12  1  0
 12 13  2  0
 12 14  1  0
 14 15  1  0
 15 16  1  0
 16 17  1  0
 17 18  1  0
 17 19  1  0
 20 21  2  0
 21 22  1  0
 21 23  1  0
 23 24  1  0
 23 25  1  0
 23 26  1  0
  8  3  1  0
 19 14  1  0
  1 27  1  0
  1 28  1  0
  1 29  1  0
  2 30  1  1
  4 31  1  0
  5 32  1  0
  6 33  1  0
  7 34  1  0
 10 35  1  6
 11 36  1  0
 11 37  1  0
 15 38  1  0
 15 39  1  0
 16 40  1  0
 16 41  1  0
 17 42  1  1
 19 43  1  0
 19 44  1  0
 22 45  1  0
M  END
$$$$
