
     RDKit          3D

 62 65  0  0  0  0  0  0  0  0999 V2000
   -3.4192    3.3831    0.0843 C   0  0  0  0  0  0  0  0  0  0  0  0
   -2.6506    3.2943    1.3315 N   0  0  0  0  0  0  0  0  0  0  0  0
   -2.8516    4.2984    2.3819 C   0  0  0  0  0  0  0  0  0  0  0  0
   -1.6980    2.2290    1.5604 C   0  0  0  0  0  0  0  0  0  0  0  0
   -1.0991    2.1693    2.6707 O   0  0  0  0  0  0  0  0  0  0  0  0
   -1.4402    1.1328    0.5315 C   0  0  1  0  0  0  0  0  0  0  0  0
    0.0870    0.7715    0.4540 C   0  0  1  0  0  0  0  0  0  0  0  0
    0.3951   -0.2816   -0.6489 C   0  0  0  0  0  0  0  0  0  0  0  0
    1.8849   -0.3551   -1.0568 C   0  0  0  0  0  0  0  0  0  0  0  0
    2.8149    0.2257    0.0219 C   0  0  1  0  0  0  0  0  0  0  0  0
    4.2758    0.0573   -0.3512 C   0  0  0  0  0  0  0  0  0  0  0  0
    4.8054    0.6252   -1.5398 C   0  0  0  0  0  0  0  0  0  0  0  0
    6.1606    0.4636   -1.8703 C   0  0  0  0  0  0  0  0  0  0  0  0
    6.9525   -0.2666   -0.9915 C   0  0  0  0  0  0  0  0  0  0  0  0
    8.2639   -0.5342   -1.1215 N   0  0  0  0  0  0  0  0  0  0  0  0
    8.5012   -1.2615    0.0019 C   0  0  0  0  0  0  0  0  0  0  0  0
    7.3989   -1.4270    0.7716 N   0  0  0  0  0  0  0  0  0  0  0  0
    6.4428   -0.7928    0.1243 N   0  0  0  0  0  0  0  0  0  0  0  0
    5.1440   -0.6683    0.4923 C   0  0  0  0  0  0  0  0  0  0  0  0
    2.4731    1.7065    0.3141 C   0  0  0  0  0  0  0  0  0  0  0  0
    0.9659    2.0214    0.1951 C   0  0  0  0  0  0  0  0  0  0  0  0
   -2.4054   -0.0713    0.8489 C   0  0  2  0  0  0  0  0  0  0  0  0
   -1.9121   -0.9089    1.9486 N   0  0  0  0  0  0  0  0  0  0  0  0
   -2.7714   -0.9250   -0.3559 C   0  0  0  0  0  0  0  0  0  0  0  0
   -2.6009   -0.4680   -1.5188 O   0  0  0  0  0  0  0  0  0  0  0  0
   -3.4251   -2.2013   -0.2076 N   0  0  0  0  0  0  0  0  0  0  0  0
   -3.6259   -3.1040   -1.3297 C   0  0  0  0  0  0  0  0  0  0  0  0
   -4.3835   -4.2985   -0.7666 C   0  0  0  0  0  0  0  0  0  0  0  0
   -5.0048   -3.8055    0.5377 C   0  0  0  0  0  0  0  0  0  0  0  0
   -5.0235   -4.8104    1.4905 F   0  0  0  0  0  0  0  0  0  0  0  0
   -6.2982   -3.3668    0.3045 F   0  0  0  0  0  0  0  0  0  0  0  0
   -4.1330   -2.6381    0.9868 C   0  0  0  0  0  0  0  0  0  0  0  0
   -3.9661    2.4338   -0.0943 H   0  0  0  0  0  0  0  0  0  0  0  0
   -4.1702    4.1997    0.1208 H   0  0  0  0  0  0  0  0  0  0  0  0
   -2.7352    3.5896   -0.7652 H   0  0  0  0  0  0  0  0  0  0  0  0
   -3.5884    5.0725    2.0810 H   0  0  0  0  0  0  0  0  0  0  0  0
   -3.2233    3.8053    3.3049 H   0  0  0  0  0  0  0  0  0  0  0  0
   -1.8894    4.8077    2.6015 H   0  0  0  0  0  0  0  0  0  0  0  0
   -1.7006    1.5430   -0.4638 H   0  0  0  0  0  0  0  0  0  0  0  0
    0.3948    0.3534    1.4373 H   0  0  0  0  0  0  0  0  0  0  0  0
    0.0714   -1.2862   -0.3074 H   0  0  0  0  0  0  0  0  0  0  0  0
   -0.1785   -0.0380   -1.5669 H   0  0  0  0  0  0  0  0  0  0  0  0
    2.0228    0.2089   -2.0053 H   0  0  0  0  0  0  0  0  0  0  0  0
    2.1585   -1.4144   -1.2581 H   0  0  0  0  0  0  0  0  0  0  0  0
    2.6219   -0.3524    0.9543 H   0  0  0  0  0  0  0  0  0  0  0  0
    4.1716    1.1950   -2.2066 H   0  0  0  0  0  0  0  0  0  0  0  0
    6.5722    0.8935   -2.7744 H   0  0  0  0  0  0  0  0  0  0  0  0
    9.4715   -1.6666    0.2557 H   0  0  0  0  0  0  0  0  0  0  0  0
    4.7926   -1.1187    1.4126 H   0  0  0  0  0  0  0  0  0  0  0  0
    3.0203    2.3851   -0.3756 H   0  0  0  0  0  0  0  0  0  0  0  0
    2.8166    1.9471    1.3444 H   0  0  0  0  0  0  0  0  0  0  0  0
    0.7341    2.8405    0.9069 H   0  0  0  0  0  0  0  0  0  0  0  0
    0.7504    2.4088   -0.8257 H   0  0  0  0  0  0  0  0  0  0  0  0
   -3.3771    0.3577    1.1805 H   0  0  0  0  0  0  0  0  0  0  0  0
   -1.0609   -1.4388    1.6591 H   0  0  0  0  0  0  0  0  0  0  0  0
   -1.6725   -0.3164    2.7744 H   0  0  0  0  0  0  0  0  0  0  0  0
   -2.6474   -3.4200   -1.7520 H   0  0  0  0  0  0  0  0  0  0  0  0
   -4.2321   -2.5995   -2.1135 H   0  0  0  0  0  0  0  0  0  0  0  0
   -5.1552   -4.6641   -1.4785 H   0  0  0  0  0  0  0  0  0  0  0  0
   -3.6664   -5.1219   -0.5531 H   0  0  0  0  0  0  0  0  0  0  0  0
   -4.7563   -1.8151    1.3991 H   0  0  0  0  0  0  0  0  0  0  0  0
   -3.4026   -2.9823    1.7494 H   0  0  0  0  0  0  0  0  0  0  0  0
  1  2  1  0
  2  3  1  0
  2  4  1  0
  4  5  2  0
  4  6  1  0
  6  7  1  0
  7  8  1  0
  8  9  1  0
  9 10  1  0
 10 11  1  0
 11 12  1  0
 12 13  2  0
 13 14  1  0
 14 15  2  0
 15 16  1  0
 16 17  2  0
 17 18  1  0
 18 19  1  0
 10 20  1  0
 20 21  1  0
  6 22  1  0
 22 23  1  0
 22 24  1  0
 24 25  2  0
 24 26  1  0
 26 27  1  0
 27 28  1  0
 28 29  1  0
 29 30  1  0
 29 31  1  0
 29 32  1  0
 21  7  1  0
 32 26  1  0
 19 11  2  0
 18 14  1  0
  1 33  1  0
  1 34  1  0
  1 35  1  0
  3 36  1  0
  3 37  1  0
  3 38  1  0
  6 39  1  6
  7 40  1  1
  8 41  1  0
  8 42  1  0
  9 43  1  0
  9 44  1  0
 10 45  1  1
 12 46  1  0
 13 47  1  0
 16 48  1  0
 19 49  1  0
 20 50  1  0
 20 51  1  0
 21 52  1  0
 21 53  1  0
 22 54  1  1
 23 55  1  0
 23 56  1  0
 27 57  1  0
 27 58  1  0
 28 59  1  0
 28 60  1  0
 32 61  1  0
 32 62  1  0
M  END
$$$$
