
     RDKit          3D

 43 45  0  0  0  0  0  0  0  0999 V2000
   -0.0511   -1.6927   -2.5220 C   0  0  0  0  0  0  0  0  0  0  0  0
   -0.2219   -0.8140   -1.3164 C   0  0  0  0  0  0  0  0  0  0  0  0
    0.8739   -0.1579   -0.8502 N   0  0  0  0  0  0  0  0  0  0  0  0
    0.8422    0.6726    0.2226 C   0  0  0  0  0  0  0  0  0  0  0  0
    2.0744    1.3716    0.6662 C   0  0  0  0  0  0  0  0  0  0  0  0
    1.9641    2.3772    1.4204 O   0  0  0  0  0  0  0  0  0  0  0  0
    3.3926    0.9470    0.2617 N   0  0  0  0  0  0  0  0  0  0  0  0
    4.5822    1.7265    0.5636 C   0  0  0  0  0  0  0  0  0  0  0  0
    5.7497    0.9422   -0.0184 C   0  0  0  0  0  0  0  0  0  0  0  0
    5.2290   -0.4757   -0.2253 C   0  0  0  0  0  0  0  0  0  0  0  0
    3.7148   -0.3479   -0.3185 C   0  0  0  0  0  0  0  0  0  0  0  0
   -0.3738    0.8816    0.8835 C   0  0  0  0  0  0  0  0  0  0  0  0
   -1.5319    0.2265    0.4474 C   0  0  0  0  0  0  0  0  0  0  0  0
   -2.7872    0.4635    1.1901 C   0  0  0  0  0  0  0  0  0  0  0  0
   -3.4214    1.7135    1.1173 C   0  0  0  0  0  0  0  0  0  0  0  0
   -4.6054    1.9429    1.8251 C   0  0  0  0  0  0  0  0  0  0  0  0
   -5.1575    0.9294    2.6146 C   0  0  0  0  0  0  0  0  0  0  0  0
   -6.3051    1.1536    3.3006 F   0  0  0  0  0  0  0  0  0  0  0  0
   -4.5230   -0.3137    2.7004 C   0  0  0  0  0  0  0  0  0  0  0  0
   -3.3388   -0.5463    1.9942 C   0  0  0  0  0  0  0  0  0  0  0  0
   -1.4764   -0.6235   -0.6852 C   0  0  0  0  0  0  0  0  0  0  0  0
   -2.7258   -1.3200   -1.1929 C   0  0  0  0  0  0  0  0  0  0  0  0
   -2.9355   -2.5708   -0.4711 N   0  0  0  0  0  0  0  0  0  0  0  0
   -0.4562   -2.7063   -2.3256 H   0  0  0  0  0  0  0  0  0  0  0  0
   -0.5693   -1.2416   -3.3938 H   0  0  0  0  0  0  0  0  0  0  0  0
    1.0255   -1.7991   -2.7749 H   0  0  0  0  0  0  0  0  0  0  0  0
    4.5141    2.7335    0.0977 H   0  0  0  0  0  0  0  0  0  0  0  0
    4.6951    1.8256    1.6653 H   0  0  0  0  0  0  0  0  0  0  0  0
    6.6288    0.9564    0.6618 H   0  0  0  0  0  0  0  0  0  0  0  0
    6.0388    1.3774   -1.0004 H   0  0  0  0  0  0  0  0  0  0  0  0
    5.4971   -1.1002    0.6553 H   0  0  0  0  0  0  0  0  0  0  0  0
    5.6564   -0.9349   -1.1431 H   0  0  0  0  0  0  0  0  0  0  0  0
    3.2215   -1.1666    0.2495 H   0  0  0  0  0  0  0  0  0  0  0  0
    3.4004   -0.3703   -1.3841 H   0  0  0  0  0  0  0  0  0  0  0  0
   -0.4219    1.5378    1.7451 H   0  0  0  0  0  0  0  0  0  0  0  0
   -3.0024    2.5052    0.5082 H   0  0  0  0  0  0  0  0  0  0  0  0
   -5.0939    2.9067    1.7614 H   0  0  0  0  0  0  0  0  0  0  0  0
   -4.9459   -1.0963    3.3170 H   0  0  0  0  0  0  0  0  0  0  0  0
   -2.8483   -1.5078    2.0801 H   0  0  0  0  0  0  0  0  0  0  0  0
   -2.6703   -1.5175   -2.2846 H   0  0  0  0  0  0  0  0  0  0  0  0
   -3.6113   -0.6629   -1.0544 H   0  0  0  0  0  0  0  0  0  0  0  0
   -3.8403   -2.9804   -0.7981 H   0  0  0  0  0  0  0  0  0  0  0  0
   -2.1859   -3.2445   -0.7483 H   0  0  0  0  0  0  0  0  0  0  0  0
  1  2  1  0
  2  3  2  0
  3  4  1  0
  4  5  1  0
  5  6  2  0
  5  7  1  0
  7  8  1  0
  8  9  1  0
  9 10  1  0
 10 11  1  0
  4 12  2  0
 12 13  1  0
 13 14  1  0
 14 15  2  0
 15 16  1  0
 16 17  2  0
 17 18  1  0
 17 19  1  0
 19 20  2  0
 13 21  2  0
 21 22  1  0
 22 23  1  0
 21  2  1  0
 11  7  1  0
 20 14  1  0
  1 24  1  0
  1 25  1  0
  1 26  1  0
  8 27  1  0
  8 28  1  0
  9 29  1  0
  9 30  1  0
 10 31  1  0
 10 32  1  0
 11 33  1  0
 11 34  1  0
 12 35  1  0
 15 36  1  0
 16 37  1  0
 19 38  1  0
 20 39  1  0
 22 40  1  0
 22 41  1  0
 23 42  1  0
 23 43  1  0
M  END
$$$$
