
     RDKit          3D

 29 30  0  0  0  0  0  0  0  0999 V2000
   -3.9954    0.4955    0.0559 C   0  0  0  0  0  0  0  0  0  0  0  0
   -2.6508    0.0008   -0.4905 C   0  0  0  0  0  0  0  0  0  0  0  0
   -1.8993    1.1556   -1.1669 C   0  0  0  0  0  0  0  0  0  0  0  0
   -1.8167   -0.6321    0.6398 C   0  0  0  0  0  0  0  0  0  0  0  0
   -0.6072   -1.2623    0.1080 N   0  0  0  0  0  0  0  0  0  0  0  0
    0.7029   -0.6827    0.2455 C   0  0  0  0  0  0  0  0  0  0  0  0
    0.8231    0.6043    0.6844 N   0  0  0  0  0  0  0  0  0  0  0  0
    2.0414    1.1866    0.7467 C   0  0  0  0  0  0  0  0  0  0  0  0
    2.3729    2.7516    1.2518 S   0  0  0  0  0  0  0  0  0  0  0  0
    4.0274    2.5080    0.9621 C   0  0  0  0  0  0  0  0  0  0  0  0
    4.2699    1.2586    0.4948 N   0  0  0  0  0  0  0  0  0  0  0  0
    3.1588    0.5347    0.3775 N   0  0  0  0  0  0  0  0  0  0  0  0
    3.1155   -0.7502   -0.0600 C   0  0  0  0  0  0  0  0  0  0  0  0
    4.1805   -1.3475   -0.3763 O   0  0  0  0  0  0  0  0  0  0  0  0
    1.8669   -1.4069   -0.1321 C   0  0  0  0  0  0  0  0  0  0  0  0
    1.7898   -2.7839   -0.5365 N   0  0  0  0  0  0  0  0  0  0  0  0
    2.5056   -3.2104   -1.4660 O   0  0  0  0  0  0  0  0  0  0  0  0
    1.0434   -3.6781    0.1958 O   0  0  0  0  0  0  0  0  0  0  0  0
   -4.5602   -0.3479    0.5074 H   0  0  0  0  0  0  0  0  0  0  0  0
   -4.6115    0.9196   -0.7657 H   0  0  0  0  0  0  0  0  0  0  0  0
   -3.8401    1.2785    0.8292 H   0  0  0  0  0  0  0  0  0  0  0  0
   -2.8594   -0.7778   -1.2576 H   0  0  0  0  0  0  0  0  0  0  0  0
   -2.5303    1.6124   -1.9588 H   0  0  0  0  0  0  0  0  0  0  0  0
   -1.6333    1.9390   -0.4250 H   0  0  0  0  0  0  0  0  0  0  0  0
   -0.9710    0.7839   -1.6494 H   0  0  0  0  0  0  0  0  0  0  0  0
   -1.5661    0.1284    1.4113 H   0  0  0  0  0  0  0  0  0  0  0  0
   -2.4200   -1.4175    1.1447 H   0  0  0  0  0  0  0  0  0  0  0  0
   -0.7394   -2.1048   -0.4943 H   0  0  0  0  0  0  0  0  0  0  0  0
    4.8026    3.2442    1.1241 H   0  0  0  0  0  0  0  0  0  0  0  0
  1  2  1  0
  2  3  1  0
  2  4  1  0
  4  5  1  0
  5  6  1  0
  6  7  1  0
  7  8  2  0
  8  9  1  0
  9 10  1  0
 10 11  2  0
 11 12  1  0
 12 13  1  0
 13 14  2  0
 13 15  1  0
 15 16  1  0
 16 17  2  0
 16 18  1  0
 15  6  2  0
 12  8  1  0
  1 19  1  0
  1 20  1  0
  1 21  1  0
  2 22  1  0
  3 23  1  0
  3 24  1  0
  3 25  1  0
  4 26  1  0
  4 27  1  0
  5 28  1  0
 10 29  1  0
M  CHG  2  16   1  18  -1
M  END
$$$$
