
     RDKit          3D

 40 42  0  0  0  0  0  0  0  0999 V2000
   -2.0122   -3.1884   -2.2844 N   0  0  0  0  0  0  0  0  0  0  0  0
   -2.6188   -2.7708   -1.3917 C   0  0  0  0  0  0  0  0  0  0  0  0
   -3.3898   -2.2387   -0.2546 C   0  0  2  0  0  0  0  0  0  0  0  0
   -4.6875   -1.5821   -0.7304 C   0  0  0  0  0  0  0  0  0  0  0  0
   -4.8102   -0.2830    0.0603 C   0  0  0  0  0  0  0  0  0  0  0  0
   -3.4068    0.0437    0.5531 C   0  0  0  0  0  0  0  0  0  0  0  0
   -2.6457   -1.1893    0.4293 N   0  0  0  0  0  0  0  0  0  0  0  0
   -1.3477   -1.3946    1.0229 C   0  0  0  0  0  0  0  0  0  0  0  0
   -0.8749   -2.5625    1.0926 O   0  0  0  0  0  0  0  0  0  0  0  0
   -0.5053   -0.2299    1.4853 C   0  0  2  0  0  0  0  0  0  0  0  0
    0.1830    0.4516    0.3091 C   0  0  0  0  0  0  0  0  0  0  0  0
    1.4703    0.9748    0.9122 C   0  0  2  0  0  0  0  0  0  0  0  0
    2.5914    1.1342   -0.0999 C   0  0  0  0  0  0  0  0  0  0  0  0
    3.0815    0.0351   -0.8331 C   0  0  0  0  0  0  0  0  0  0  0  0
    4.1118    0.2053   -1.7624 C   0  0  0  0  0  0  0  0  0  0  0  0
    4.6668    1.4703   -1.9745 C   0  0  0  0  0  0  0  0  0  0  0  0
    5.6929    1.6246   -2.9038 O   0  0  0  0  0  0  0  0  0  0  0  0
    4.1862    2.5693   -1.2516 C   0  0  0  0  0  0  0  0  0  0  0  0
    3.1559    2.4030   -0.3213 C   0  0  0  0  0  0  0  0  0  0  0  0
    1.7887   -0.0125    2.0322 C   0  0  0  0  0  0  0  0  0  0  0  0
    0.5412   -0.6816    2.4122 N   0  0  0  0  0  0  0  0  0  0  0  0
   -3.6139   -3.0603    0.4600 H   0  0  0  0  0  0  0  0  0  0  0  0
   -5.5615   -2.2445   -0.5470 H   0  0  0  0  0  0  0  0  0  0  0  0
   -4.6494   -1.3357   -1.8162 H   0  0  0  0  0  0  0  0  0  0  0  0
   -5.4838   -0.4429    0.9311 H   0  0  0  0  0  0  0  0  0  0  0  0
   -5.2187    0.5379   -0.5685 H   0  0  0  0  0  0  0  0  0  0  0  0
   -2.9449    0.8335   -0.0773 H   0  0  0  0  0  0  0  0  0  0  0  0
   -3.4478    0.3747    1.6132 H   0  0  0  0  0  0  0  0  0  0  0  0
   -1.1485    0.5183    2.0014 H   0  0  0  0  0  0  0  0  0  0  0  0
   -0.4350    1.2801   -0.1009 H   0  0  0  0  0  0  0  0  0  0  0  0
    0.3875   -0.2822   -0.5021 H   0  0  0  0  0  0  0  0  0  0  0  0
    1.2422    1.9574    1.3865 H   0  0  0  0  0  0  0  0  0  0  0  0
    2.6684   -0.9549   -0.6875 H   0  0  0  0  0  0  0  0  0  0  0  0
    4.4793   -0.6476   -2.3188 H   0  0  0  0  0  0  0  0  0  0  0  0
    6.1158    2.5284   -3.0804 H   0  0  0  0  0  0  0  0  0  0  0  0
    4.6100    3.5529   -1.4098 H   0  0  0  0  0  0  0  0  0  0  0  0
    2.7996    3.2671    0.2255 H   0  0  0  0  0  0  0  0  0  0  0  0
    2.5107   -0.7894    1.7035 H   0  0  0  0  0  0  0  0  0  0  0  0
    2.2376    0.5210    2.9006 H   0  0  0  0  0  0  0  0  0  0  0  0
    0.2814   -0.3921    3.3851 H   0  0  0  0  0  0  0  0  0  0  0  0
  1  2  3  0
  2  3  1  0
  3  4  1  0
  4  5  1  0
  5  6  1  0
  6  7  1  0
  7  8  1  0
  8  9  2  0
  8 10  1  0
 10 11  1  0
 11 12  1  0
 12 13  1  0
 13 14  2  0
 14 15  1  0
 15 16  2  0
 16 17  1  0
 16 18  1  0
 18 19  2  0
 12 20  1  0
 20 21  1  0
  7  3  1  0
 21 10  1  0
 19 13  1  0
  3 22  1  1
  4 23  1  0
  4 24  1  0
  5 25  1  0
  5 26  1  0
  6 27  1  0
  6 28  1  0
 10 29  1  1
 11 30  1  0
 11 31  1  0
 12 32  1  1
 14 33  1  0
 15 34  1  0
 17 35  1  0
 18 36  1  0
 19 37  1  0
 20 38  1  0
 20 39  1  0
 21 40  1  0
M  END
$$$$
