
     RDKit          3D

 35 37  0  0  0  0  0  0  0  0999 V2000
   -4.3074    0.9492   -2.1352 C   0  0  0  0  0  0  0  0  0  0  0  0
   -3.5210    0.3247   -1.0209 C   0  0  0  0  0  0  0  0  0  0  0  0
   -4.1395   -0.5662   -0.1331 C   0  0  0  0  0  0  0  0  0  0  0  0
   -3.4004   -1.1766    0.8834 C   0  0  0  0  0  0  0  0  0  0  0  0
   -2.0293   -0.9098    1.0254 C   0  0  0  0  0  0  0  0  0  0  0  0
   -1.2445   -1.5849    2.1163 C   0  0  0  0  0  0  0  0  0  0  0  0
   -1.3968   -0.0411    0.1112 C   0  0  0  0  0  0  0  0  0  0  0  0
    0.0121    0.2240    0.2029 N   0  0  0  0  0  0  0  0  0  0  0  0
    0.4745    1.4313    0.8303 C   0  0  0  0  0  0  0  0  0  0  0  0
   -0.3527    2.3133    1.1889 O   0  0  0  0  0  0  0  0  0  0  0  0
    1.9292    1.6344    1.1452 C   0  0  0  0  0  0  0  0  0  0  0  0
    2.8559    0.7682    0.3268 C   0  0  0  0  0  0  0  0  0  0  0  0
    4.2290    1.0656    0.3275 C   0  0  0  0  0  0  0  0  0  0  0  0
    5.1311    0.2549   -0.3644 C   0  0  0  0  0  0  0  0  0  0  0  0
    4.6745   -0.8682   -1.0542 C   0  0  0  0  0  0  0  0  0  0  0  0
    3.3142   -1.1841   -1.0550 C   0  0  0  0  0  0  0  0  0  0  0  0
    2.3947   -0.3727   -0.3649 C   0  0  0  0  0  0  0  0  0  0  0  0
    0.9533   -0.6909   -0.3786 C   0  0  0  0  0  0  0  0  0  0  0  0
    0.5451   -1.7557   -0.9199 O   0  0  0  0  0  0  0  0  0  0  0  0
   -2.1456    0.5700   -0.9043 C   0  0  0  0  0  0  0  0  0  0  0  0
   -3.8905    1.9447   -2.3984 H   0  0  0  0  0  0  0  0  0  0  0  0
   -5.3679    1.0899   -1.8358 H   0  0  0  0  0  0  0  0  0  0  0  0
   -4.2674    0.2918   -3.0286 H   0  0  0  0  0  0  0  0  0  0  0  0
   -5.1952   -0.7891   -0.2274 H   0  0  0  0  0  0  0  0  0  0  0  0
   -3.9002   -1.8592    1.5595 H   0  0  0  0  0  0  0  0  0  0  0  0
   -0.6257   -2.3969    1.6808 H   0  0  0  0  0  0  0  0  0  0  0  0
   -0.5814   -0.8520    2.6225 H   0  0  0  0  0  0  0  0  0  0  0  0
   -1.9158   -2.0228    2.8854 H   0  0  0  0  0  0  0  0  0  0  0  0
    2.1830    2.7036    0.9752 H   0  0  0  0  0  0  0  0  0  0  0  0
    2.0895    1.4079    2.2206 H   0  0  0  0  0  0  0  0  0  0  0  0
    4.6018    1.9255    0.8707 H   0  0  0  0  0  0  0  0  0  0  0  0
    6.1866    0.4946   -0.3605 H   0  0  0  0  0  0  0  0  0  0  0  0
    5.3758   -1.4962   -1.5882 H   0  0  0  0  0  0  0  0  0  0  0  0
    2.9822   -2.0598   -1.5986 H   0  0  0  0  0  0  0  0  0  0  0  0
   -1.6512    1.2327   -1.6046 H   0  0  0  0  0  0  0  0  0  0  0  0
  1  2  1  0
  2  3  2  0
  3  4  1  0
  4  5  2  0
  5  6  1  0
  5  7  1  0
  7  8  1  0
  8  9  1  0
  9 10  2  0
  9 11  1  0
 11 12  1  0
 12 13  2  0
 13 14  1  0
 14 15  2  0
 15 16  1  0
 16 17  2  0
 17 18  1  0
 18 19  2  0
  7 20  2  0
 20  2  1  0
 18  8  1  0
 17 12  1  0
  1 21  1  0
  1 22  1  0
  1 23  1  0
  3 24  1  0
  4 25  1  0
  6 26  1  0
  6 27  1  0
  6 28  1  0
 11 29  1  0
 11 30  1  0
 13 31  1  0
 14 32  1  0
 15 33  1  0
 16 34  1  0
 20 35  1  0
M  END
$$$$
