
     RDKit          3D

 47 50  0  0  0  0  0  0  0  0999 V2000
   -2.9461    2.1252    1.3450 N   0  0  0  0  0  0  0  0  0  0  0  0
   -2.2785    1.2450    0.3814 C   0  0  1  0  0  0  0  0  0  0  0  0
   -0.7625    1.2001    0.6305 C   0  0  0  0  0  0  0  0  0  0  0  0
   -0.0367    0.2222   -0.3374 C   0  0  1  0  0  0  0  0  0  0  0  0
    0.9859   -0.5809    0.3866 N   0  0  0  0  0  0  0  0  0  0  0  0
    1.7749   -1.4708   -0.5117 C   0  0  0  0  0  0  0  0  0  0  0  0
    3.1549   -1.3903   -0.0027 C   0  0  0  0  0  0  0  0  0  0  0  0
    4.3718   -1.4682   -0.6409 C   0  0  0  0  0  0  0  0  0  0  0  0
    5.1760   -0.5532   -0.0593 N   0  0  0  0  0  0  0  0  0  0  0  0
    6.7742   -0.1493   -0.5837 S   0  0  0  0  0  0  0  0  0  0  0  0
    6.6997    0.8891   -1.6673 O   0  0  0  0  0  0  0  0  0  0  0  0
    7.4529   -1.3804   -1.1155 O   0  0  0  0  0  0  0  0  0  0  0  0
    7.7191    0.4791    0.7891 C   0  0  0  0  0  0  0  0  0  0  0  0
    9.0173    0.7243    0.3837 F   0  0  0  0  0  0  0  0  0  0  0  0
    7.7259   -0.4520    1.8102 F   0  0  0  0  0  0  0  0  0  0  0  0
    7.1525    1.6545    1.2439 F   0  0  0  0  0  0  0  0  0  0  0  0
    4.4959    0.1525    0.8350 N   0  0  0  0  0  0  0  0  0  0  0  0
    3.2733   -0.4063    0.8952 C   0  0  0  0  0  0  0  0  0  0  0  0
    1.9794    0.2652    1.1088 C   0  0  0  0  0  0  0  0  0  0  0  0
   -1.0756   -0.6889   -1.0463 C   0  0  0  0  0  0  0  0  0  0  0  0
   -2.0336   -1.2073   -0.1401 O   0  0  0  0  0  0  0  0  0  0  0  0
   -2.8383   -0.2019    0.4786 C   0  0  2  0  0  0  0  0  0  0  0  0
   -4.2716   -0.2752   -0.0180 C   0  0  0  0  0  0  0  0  0  0  0  0
   -4.5554   -0.4741   -1.3833 C   0  0  0  0  0  0  0  0  0  0  0  0
   -5.8774   -0.5073   -1.8372 C   0  0  0  0  0  0  0  0  0  0  0  0
   -6.1366   -0.7057   -3.1532 F   0  0  0  0  0  0  0  0  0  0  0  0
   -6.9313   -0.3343   -0.9385 C   0  0  0  0  0  0  0  0  0  0  0  0
   -6.6659   -0.1253    0.4157 C   0  0  0  0  0  0  0  0  0  0  0  0
   -5.3464   -0.0910    0.8780 C   0  0  0  0  0  0  0  0  0  0  0  0
   -5.1219    0.1239    2.1994 F   0  0  0  0  0  0  0  0  0  0  0  0
   -2.6974    1.8347    2.3189 H   0  0  0  0  0  0  0  0  0  0  0  0
   -2.5887    3.0990    1.2104 H   0  0  0  0  0  0  0  0  0  0  0  0
   -2.4627    1.6492   -0.6399 H   0  0  0  0  0  0  0  0  0  0  0  0
   -0.5979    0.8854    1.6847 H   0  0  0  0  0  0  0  0  0  0  0  0
   -0.3372    2.2213    0.5164 H   0  0  0  0  0  0  0  0  0  0  0  0
    0.4640    0.8284   -1.1279 H   0  0  0  0  0  0  0  0  0  0  0  0
    1.4043   -2.5148   -0.4417 H   0  0  0  0  0  0  0  0  0  0  0  0
    1.7605   -1.1217   -1.5692 H   0  0  0  0  0  0  0  0  0  0  0  0
    4.6011   -2.0102   -1.5491 H   0  0  0  0  0  0  0  0  0  0  0  0
    1.7435    0.2969    2.1929 H   0  0  0  0  0  0  0  0  0  0  0  0
    2.0354    1.2968    0.6935 H   0  0  0  0  0  0  0  0  0  0  0  0
   -1.5718   -0.1195   -1.8613 H   0  0  0  0  0  0  0  0  0  0  0  0
   -0.5875   -1.5407   -1.5588 H   0  0  0  0  0  0  0  0  0  0  0  0
   -2.8400   -0.4685    1.5584 H   0  0  0  0  0  0  0  0  0  0  0  0
   -3.7618   -0.6095   -2.1023 H   0  0  0  0  0  0  0  0  0  0  0  0
   -7.9545   -0.3591   -1.2909 H   0  0  0  0  0  0  0  0  0  0  0  0
   -7.4856    0.0135    1.1089 H   0  0  0  0  0  0  0  0  0  0  0  0
  1  2  1  0
  2  3  1  0
  3  4  1  0
  4  5  1  0
  5  6  1  0
  6  7  1  0
  7  8  2  0
  8  9  1  0
  9 10  1  0
 10 11  2  0
 10 12  2  0
 10 13  1  0
 13 14  1  0
 13 15  1  0
 13 16  1  0
  9 17  1  0
 17 18  2  0
 18 19  1  0
  4 20  1  0
 20 21  1  0
 21 22  1  0
 22 23  1  0
 23 24  2  0
 24 25  1  0
 25 26  1  0
 25 27  2  0
 27 28  1  0
 28 29  2  0
 29 30  1  0
 22  2  1  0
 29 23  1  0
 19  5  1  0
 18  7  1  0
  1 31  1  0
  1 32  1  0
  2 33  1  6
  3 34  1  0
  3 35  1  0
  4 36  1  6
  6 37  1  0
  6 38  1  0
  8 39  1  0
 19 40  1  0
 19 41  1  0
 20 42  1  0
 20 43  1  0
 22 44  1  1
 24 45  1  0
 27 46  1  0
 28 47  1  0
M  END
$$$$
