
     RDKit          3D

 50 53  0  0  0  0  0  0  0  0999 V2000
   -3.2116    0.4272    2.7325 O   0  0  0  0  0  0  0  0  0  0  0  0
   -3.6786    0.1800    1.5862 C   0  0  0  0  0  0  0  0  0  0  0  0
   -2.9711    0.7403    0.3652 C   0  0  2  0  0  0  0  0  0  0  0  0
   -1.7051   -0.0375    0.0506 C   0  0  0  0  0  0  0  0  0  0  0  0
   -0.8468    0.9655   -0.7039 C   0  0  2  0  0  0  0  0  0  0  0  0
    0.6082    0.6873   -0.5741 N   0  0  0  0  0  0  0  0  0  0  0  0
    0.9327   -0.6968   -1.0123 C   0  0  0  0  0  0  0  0  0  0  0  0
    2.4310   -0.9141   -1.3231 C   0  0  0  0  0  0  0  0  0  0  0  0
    3.2557    0.1477   -0.7423 N   0  0  0  0  0  0  0  0  0  0  0  0
    4.5770   -0.1575   -0.2777 C   0  0  0  0  0  0  0  0  0  0  0  0
    5.5744   -0.5130   -1.1980 C   0  0  0  0  0  0  0  0  0  0  0  0
    6.8669   -0.8082   -0.7558 C   0  0  0  0  0  0  0  0  0  0  0  0
    7.1693   -0.7544    0.6072 C   0  0  0  0  0  0  0  0  0  0  0  0
    6.1788   -0.4090    1.5311 C   0  0  0  0  0  0  0  0  0  0  0  0
    4.8819   -0.1113    1.0952 C   0  0  0  0  0  0  0  0  0  0  0  0
    3.6474    0.2794    2.2850 Cl  0  0  0  0  0  0  0  0  0  0  0  0
    2.8719    1.5512   -0.9149 C   0  0  0  0  0  0  0  0  0  0  0  0
    1.4086    1.6623   -1.3438 C   0  0  0  0  0  0  0  0  0  0  0  0
   -1.2474    2.2955   -0.0542 C   0  0  0  0  0  0  0  0  0  0  0  0
   -2.5912    2.1514    0.5165 N   0  0  0  0  0  0  0  0  0  0  0  0
   -4.8290   -0.6820    1.4666 N   0  0  0  0  0  0  0  0  0  0  0  0
   -5.5545   -1.1331    2.6458 C   0  0  0  0  0  0  0  0  0  0  0  0
   -6.8292   -1.8155    2.1803 C   0  0  0  0  0  0  0  0  0  0  0  0
   -6.5214   -2.5137    0.5355 S   0  0  0  0  0  0  0  0  0  0  0  0
   -5.2894   -1.2247    0.1947 C   0  0  0  0  0  0  0  0  0  0  0  0
   -3.6420    0.6845   -0.5177 H   0  0  0  0  0  0  0  0  0  0  0  0
   -1.9259   -0.9363   -0.5657 H   0  0  0  0  0  0  0  0  0  0  0  0
   -1.1934   -0.3412    0.9922 H   0  0  0  0  0  0  0  0  0  0  0  0
   -1.1523    0.9725   -1.7770 H   0  0  0  0  0  0  0  0  0  0  0  0
    0.6519   -1.4005   -0.1993 H   0  0  0  0  0  0  0  0  0  0  0  0
    0.3439   -0.9760   -1.9159 H   0  0  0  0  0  0  0  0  0  0  0  0
    2.7493   -1.9079   -0.9366 H   0  0  0  0  0  0  0  0  0  0  0  0
    2.5834   -0.9179   -2.4245 H   0  0  0  0  0  0  0  0  0  0  0  0
    5.3484   -0.5539   -2.2561 H   0  0  0  0  0  0  0  0  0  0  0  0
    7.6342   -1.0784   -1.4697 H   0  0  0  0  0  0  0  0  0  0  0  0
    8.1704   -0.9843    0.9484 H   0  0  0  0  0  0  0  0  0  0  0  0
    6.4188   -0.3781    2.5863 H   0  0  0  0  0  0  0  0  0  0  0  0
    3.0026    2.0881    0.0494 H   0  0  0  0  0  0  0  0  0  0  0  0
    3.5254    2.0306   -1.6754 H   0  0  0  0  0  0  0  0  0  0  0  0
    1.3139    1.4728   -2.4377 H   0  0  0  0  0  0  0  0  0  0  0  0
    1.0830    2.7065   -1.1533 H   0  0  0  0  0  0  0  0  0  0  0  0
   -0.5200    2.5664    0.7462 H   0  0  0  0  0  0  0  0  0  0  0  0
   -1.2584    3.1081   -0.8117 H   0  0  0  0  0  0  0  0  0  0  0  0
   -2.5509    2.4355    1.5233 H   0  0  0  0  0  0  0  0  0  0  0  0
   -5.8087   -0.2696    3.2984 H   0  0  0  0  0  0  0  0  0  0  0  0
   -4.9227   -1.8502    3.2135 H   0  0  0  0  0  0  0  0  0  0  0  0
   -7.1320   -2.6153    2.8886 H   0  0  0  0  0  0  0  0  0  0  0  0
   -7.6484   -1.0693    2.0987 H   0  0  0  0  0  0  0  0  0  0  0  0
   -4.4424   -1.6815   -0.3591 H   0  0  0  0  0  0  0  0  0  0  0  0
   -5.7567   -0.4213   -0.4126 H   0  0  0  0  0  0  0  0  0  0  0  0
  1  2  2  0
  2  3  1  0
  3  4  1  0
  4  5  1  0
  5  6  1  0
  6  7  1  0
  7  8  1  0
  8  9  1  0
  9 10  1  0
 10 11  2  0
 11 12  1  0
 12 13  2  0
 13 14  1  0
 14 15  2  0
 15 16  1  0
  9 17  1  0
 17 18  1  0
  5 19  1  0
 19 20  1  0
  2 21  1  0
 21 22  1  0
 22 23  1  0
 23 24  1  0
 24 25  1  0
 20  3  1  0
 25 21  1  0
 18  6  1  0
 15 10  1  0
  3 26  1  6
  4 27  1  0
  4 28  1  0
  5 29  1  6
  7 30  1  0
  7 31  1  0
  8 32  1  0
  8 33  1  0
 11 34  1  0
 12 35  1  0
 13 36  1  0
 14 37  1  0
 17 38  1  0
 17 39  1  0
 18 40  1  0
 18 41  1  0
 19 42  1  0
 19 43  1  0
 20 44  1  0
 22 45  1  0
 22 46  1  0
 23 47  1  0
 23 48  1  0
 25 49  1  0
 25 50  1  0
M  END
$$$$
