
     RDKit          3D

 62 66  0  0  0  0  0  0  0  0999 V2000
   11.6525   -1.6565    0.2884 C   0  0  0  0  0  0  0  0  0  0  0  0
   10.7873   -2.2792   -1.1346 S   0  0  0  0  0  0  0  0  0  0  0  0
   11.5785   -1.9735   -2.3751 O   0  0  0  0  0  0  0  0  0  0  0  0
   10.6164   -3.7676   -1.0176 O   0  0  0  0  0  0  0  0  0  0  0  0
    9.2348   -1.5263   -1.2418 N   0  0  0  0  0  0  0  0  0  0  0  0
    8.1904   -1.7757   -0.4239 C   0  0  0  0  0  0  0  0  0  0  0  0
    7.2009   -0.8806   -0.7606 C   0  0  0  0  0  0  0  0  0  0  0  0
    7.7136   -0.1124   -1.7276 C   0  0  0  0  0  0  0  0  0  0  0  0
    8.9835   -0.4657   -1.9983 N   0  0  0  0  0  0  0  0  0  0  0  0
    7.1335    1.2420   -1.6960 C   0  0  0  0  0  0  0  0  0  0  0  0
    6.1634    1.2227   -0.5654 N   0  0  0  0  0  0  0  0  0  0  0  0
    4.7986    1.5513   -1.0234 C   0  0  0  0  0  0  0  0  0  0  0  0
    3.8763    1.7775    0.1455 C   0  0  0  0  0  0  0  0  0  0  0  0
    4.3397    2.2843    1.2034 O   0  0  0  0  0  0  0  0  0  0  0  0
    2.4747    1.4561    0.0645 N   0  0  0  0  0  0  0  0  0  0  0  0
    1.6881    1.4358   -1.1285 C   0  0  0  0  0  0  0  0  0  0  0  0
    2.1368    1.8201   -2.2405 O   0  0  0  0  0  0  0  0  0  0  0  0
   -0.0268    0.9437   -0.9325 S   0  0  0  0  0  0  0  0  0  0  0  0
    0.2532    0.9052    0.8484 C   0  0  0  0  0  0  0  0  0  0  0  0
   -0.6731    0.5708    1.7608 C   0  0  0  0  0  0  0  0  0  0  0  0
   -2.0861    0.2811    1.4401 C   0  0  0  0  0  0  0  0  0  0  0  0
   -2.8467    1.1393    0.6283 C   0  0  0  0  0  0  0  0  0  0  0  0
   -4.1917    0.8600    0.3694 C   0  0  0  0  0  0  0  0  0  0  0  0
   -4.8009   -0.2795    0.9239 C   0  0  0  0  0  0  0  0  0  0  0  0
   -6.1888   -0.5761    0.6907 N   0  0  0  0  0  0  0  0  0  0  0  0
   -6.8830   -0.2427   -0.5235 C   0  0  0  0  0  0  0  0  0  0  0  0
   -6.2281   -0.0511   -1.5848 O   0  0  0  0  0  0  0  0  0  0  0  0
   -8.3644   -0.1711   -0.5573 C   0  0  0  0  0  0  0  0  0  0  0  0
   -9.0485   -0.2638   -1.7817 C   0  0  0  0  0  0  0  0  0  0  0  0
  -10.4445   -0.1930   -1.8288 C   0  0  0  0  0  0  0  0  0  0  0  0
  -11.0843   -0.2973   -3.0638 O   0  0  0  0  0  0  0  0  0  0  0  0
  -11.1791   -0.0198   -0.6439 C   0  0  0  0  0  0  0  0  0  0  0  0
  -12.5719    0.0484   -0.6998 O   0  0  0  0  0  0  0  0  0  0  0  0
  -10.5049    0.0854    0.5842 C   0  0  0  0  0  0  0  0  0  0  0  0
  -11.2277    0.2660    1.7628 O   0  0  0  0  0  0  0  0  0  0  0  0
   -9.1056    0.0119    0.6230 C   0  0  0  0  0  0  0  0  0  0  0  0
   -4.0528   -1.1057    1.7754 C   0  0  0  0  0  0  0  0  0  0  0  0
   -2.7078   -0.8263    2.0338 C   0  0  0  0  0  0  0  0  0  0  0  0
    1.6508    1.1703    1.1886 C   0  0  0  0  0  0  0  0  0  0  0  0
    2.0972    1.1369    2.3677 O   0  0  0  0  0  0  0  0  0  0  0  0
    6.2343   -0.1298    0.0592 C   0  0  0  0  0  0  0  0  0  0  0  0
   11.0724   -1.8886    1.2053 H   0  0  0  0  0  0  0  0  0  0  0  0
   12.6526   -2.1325    0.3539 H   0  0  0  0  0  0  0  0  0  0  0  0
   11.7715   -0.5572    0.1974 H   0  0  0  0  0  0  0  0  0  0  0  0
    8.2180   -2.4283    0.4390 H   0  0  0  0  0  0  0  0  0  0  0  0
    6.6652    1.4659   -2.6807 H   0  0  0  0  0  0  0  0  0  0  0  0
    7.9268    1.9900   -1.4845 H   0  0  0  0  0  0  0  0  0  0  0  0
    4.8164    2.4935   -1.6140 H   0  0  0  0  0  0  0  0  0  0  0  0
    4.4083    0.7370   -1.6746 H   0  0  0  0  0  0  0  0  0  0  0  0
   -0.3682    0.4466    2.7934 H   0  0  0  0  0  0  0  0  0  0  0  0
   -2.4100    2.0410    0.2182 H   0  0  0  0  0  0  0  0  0  0  0  0
   -4.7606    1.5517   -0.2375 H   0  0  0  0  0  0  0  0  0  0  0  0
   -6.6873   -1.1655    1.3950 H   0  0  0  0  0  0  0  0  0  0  0  0
   -8.5012   -0.4014   -2.7063 H   0  0  0  0  0  0  0  0  0  0  0  0
  -12.0921   -0.2526   -3.1544 H   0  0  0  0  0  0  0  0  0  0  0  0
  -13.1402    0.1729    0.1294 H   0  0  0  0  0  0  0  0  0  0  0  0
  -10.7671    0.3455    2.6619 H   0  0  0  0  0  0  0  0  0  0  0  0
   -8.6041    0.1186    1.5761 H   0  0  0  0  0  0  0  0  0  0  0  0
   -4.5119   -1.9723    2.2346 H   0  0  0  0  0  0  0  0  0  0  0  0
   -2.1479   -1.4810    2.6907 H   0  0  0  0  0  0  0  0  0  0  0  0
    6.6122   -0.0320    1.0991 H   0  0  0  0  0  0  0  0  0  0  0  0
    5.2592   -0.6662    0.0703 H   0  0  0  0  0  0  0  0  0  0  0  0
  1  2  1  0
  2  3  2  0
  2  4  2  0
  2  5  1  0
  5  6  1  0
  6  7  2  0
  7  8  1  0
  8  9  2  0
  8 10  1  0
 10 11  1  0
 11 12  1  0
 12 13  1  0
 13 14  2  0
 13 15  1  0
 15 16  1  0
 16 17  2  0
 16 18  1  0
 18 19  1  0
 19 20  2  0
 20 21  1  0
 21 22  2  0
 22 23  1  0
 23 24  2  0
 24 25  1  0
 25 26  1  0
 26 27  2  0
 26 28  1  0
 28 29  2  0
 29 30  1  0
 30 31  1  0
 30 32  2  0
 32 33  1  0
 32 34  1  0
 34 35  1  0
 34 36  2  0
 24 37  1  0
 37 38  2  0
 19 39  1  0
 39 40  2  0
 11 41  1  0
  9  5  1  0
 39 15  1  0
 41  7  1  0
 38 21  1  0
 36 28  1  0
  1 42  1  0
  1 43  1  0
  1 44  1  0
  6 45  1  0
 10 46  1  0
 10 47  1  0
 12 48  1  0
 12 49  1  0
 20 50  1  0
 22 51  1  0
 23 52  1  0
 25 53  1  0
 29 54  1  0
 31 55  1  0
 33 56  1  0
 35 57  1  0
 36 58  1  0
 37 59  1  0
 38 60  1  0
 41 61  1  0
 41 62  1  0
M  END
$$$$
