
     RDKit          3D

 61 61  0  0  0  0  0  0  0  0999 V2000
    5.7375   -0.3379   -4.8251 C   0  0  0  0  0  0  0  0  0  0  0  0
    4.5227   -0.2889   -3.9351 C   0  0  0  0  0  0  0  0  0  0  0  0
    3.1742   -0.6898   -4.4851 C   0  0  0  0  0  0  0  0  0  0  0  0
    4.6711    0.1166   -2.6561 C   0  0  0  0  0  0  0  0  0  0  0  0
    3.5215    0.2026   -1.6817 C   0  0  0  0  0  0  0  0  0  0  0  0
    3.9913    0.6936   -0.3072 C   0  0  0  0  0  0  0  0  0  0  0  0
    2.8362    0.7517    0.6623 C   0  0  0  0  0  0  0  0  0  0  0  0
    2.6837   -0.3109    1.7172 C   0  0  0  0  0  0  0  0  0  0  0  0
    1.9383    1.7410    0.5699 C   0  0  0  0  0  0  0  0  0  0  0  0
    0.8433    1.7871    1.4362 O   0  0  0  0  0  0  0  0  0  0  0  0
   -0.1734    2.7412    1.3362 C   0  0  0  0  0  0  0  0  0  0  0  0
   -0.0975    3.6826    0.4999 O   0  0  0  0  0  0  0  0  0  0  0  0
   -1.3730    2.6359    2.2321 C   0  0  2  0  0  0  0  0  0  0  0  0
   -0.9836    2.7637    3.7070 C   0  0  0  0  0  0  0  0  0  0  0  0
   -1.8097    1.7138    4.4432 C   0  0  0  0  0  0  0  0  0  0  0  0
   -2.2172    0.6888    3.3932 C   0  0  0  0  0  0  0  0  0  0  0  0
   -2.0098    1.3312    2.1061 N   0  0  0  0  0  0  0  0  0  0  0  0
   -2.7909    0.9669    0.9581 C   0  0  0  0  0  0  0  0  0  0  0  0
   -4.0489    0.9796    1.0461 O   0  0  0  0  0  0  0  0  0  0  0  0
   -2.1238    0.6608   -0.3656 C   0  0  1  0  0  0  0  0  0  0  0  0
   -0.8198    0.0252   -0.1544 N   0  0  0  0  0  0  0  0  0  0  0  0
   -3.0163   -0.1560   -1.3441 C   0  0  0  0  0  0  0  0  0  0  0  0
   -3.1069   -1.6754   -1.0895 C   0  0  0  0  0  0  0  0  0  0  0  0
   -3.8010   -2.0386    0.2323 C   0  0  0  0  0  0  0  0  0  0  0  0
   -3.9937   -3.5525    0.3780 C   0  0  0  0  0  0  0  0  0  0  0  0
   -4.9400   -4.0557   -0.6141 N   0  0  0  0  0  0  0  0  0  0  0  0
    6.4863   -1.0391   -4.3993 H   0  0  0  0  0  0  0  0  0  0  0  0
    6.1890    0.6741   -4.9000 H   0  0  0  0  0  0  0  0  0  0  0  0
    5.4827   -0.6812   -5.8492 H   0  0  0  0  0  0  0  0  0  0  0  0
    2.4673    0.1634   -4.4167 H   0  0  0  0  0  0  0  0  0  0  0  0
    2.7709   -1.5500   -3.9108 H   0  0  0  0  0  0  0  0  0  0  0  0
    3.2424   -0.9921   -5.5507 H   0  0  0  0  0  0  0  0  0  0  0  0
    5.6645    0.3952   -2.3098 H   0  0  0  0  0  0  0  0  0  0  0  0
    2.7583    0.9042   -2.0826 H   0  0  0  0  0  0  0  0  0  0  0  0
    3.0612   -0.8033   -1.5696 H   0  0  0  0  0  0  0  0  0  0  0  0
    4.7782    0.0074    0.0751 H   0  0  0  0  0  0  0  0  0  0  0  0
    4.4514    1.7024   -0.3995 H   0  0  0  0  0  0  0  0  0  0  0  0
    3.4878   -1.0726    1.6461 H   0  0  0  0  0  0  0  0  0  0  0  0
    2.7257    0.1514    2.7261 H   0  0  0  0  0  0  0  0  0  0  0  0
    1.7080   -0.8269    1.5924 H   0  0  0  0  0  0  0  0  0  0  0  0
    2.0559    2.5026   -0.1928 H   0  0  0  0  0  0  0  0  0  0  0  0
   -2.1132    3.4278    1.9765 H   0  0  0  0  0  0  0  0  0  0  0  0
   -1.1997    3.7842    4.0917 H   0  0  0  0  0  0  0  0  0  0  0  0
    0.0962    2.5450    3.8672 H   0  0  0  0  0  0  0  0  0  0  0  0
   -1.2274    1.2415    5.2642 H   0  0  0  0  0  0  0  0  0  0  0  0
   -2.7191    2.1916    4.8699 H   0  0  0  0  0  0  0  0  0  0  0  0
   -3.2823    0.4003    3.5313 H   0  0  0  0  0  0  0  0  0  0  0  0
   -1.5760   -0.2165    3.4576 H   0  0  0  0  0  0  0  0  0  0  0  0
   -1.9414    1.6459   -0.8475 H   0  0  0  0  0  0  0  0  0  0  0  0
   -0.9302   -0.8508    0.4053 H   0  0  0  0  0  0  0  0  0  0  0  0
   -0.3985   -0.2227   -1.0791 H   0  0  0  0  0  0  0  0  0  0  0  0
   -4.0399    0.2757   -1.3832 H   0  0  0  0  0  0  0  0  0  0  0  0
   -2.5964   -0.0235   -2.3654 H   0  0  0  0  0  0  0  0  0  0  0  0
   -3.6882   -2.1143   -1.9293 H   0  0  0  0  0  0  0  0  0  0  0  0
   -2.0968   -2.1353   -1.1289 H   0  0  0  0  0  0  0  0  0  0  0  0
   -3.1787   -1.6953    1.0847 H   0  0  0  0  0  0  0  0  0  0  0  0
   -4.7900   -1.5346    0.2941 H   0  0  0  0  0  0  0  0  0  0  0  0
   -4.3713   -3.7760    1.4009 H   0  0  0  0  0  0  0  0  0  0  0  0
   -3.0152   -4.0670    0.2545 H   0  0  0  0  0  0  0  0  0  0  0  0
   -5.8910   -3.6926   -0.3733 H   0  0  0  0  0  0  0  0  0  0  0  0
   -4.9847   -5.0955   -0.5122 H   0  0  0  0  0  0  0  0  0  0  0  0
  1  2  1  0
  2  3  1  0
  2  4  2  3
  4  5  1  0
  5  6  1  0
  6  7  1  0
  7  8  1  0
  7  9  2  0
  9 10  1  0
 10 11  1  0
 11 12  2  0
 11 13  1  0
 13 14  1  0
 14 15  1  0
 15 16  1  0
 16 17  1  0
 17 18  1  0
 18 19  2  0
 18 20  1  0
 20 21  1  0
 20 22  1  0
 22 23  1  0
 23 24  1  0
 24 25  1  0
 25 26  1  0
 17 13  1  0
  1 27  1  0
  1 28  1  0
  1 29  1  0
  3 30  1  0
  3 31  1  0
  3 32  1  0
  4 33  1  0
  5 34  1  0
  5 35  1  0
  6 36  1  0
  6 37  1  0
  8 38  1  0
  8 39  1  0
  8 40  1  0
  9 41  1  0
 13 42  1  6
 14 43  1  0
 14 44  1  0
 15 45  1  0
 15 46  1  0
 16 47  1  0
 16 48  1  0
 20 49  1  6
 21 50  1  0
 21 51  1  0
 22 52  1  0
 22 53  1  0
 23 54  1  0
 23 55  1  0
 24 56  1  0
 24 57  1  0
 25 58  1  0
 25 59  1  0
 26 60  1  0
 26 61  1  0
M  END
$$$$
