
     RDKit          3D

 47 48  0  0  0  0  0  0  0  0999 V2000
    2.1154   -1.5685    0.9883 O   0  0  0  0  0  0  0  0  0  0  0  0
    2.0759   -0.6921    0.0814 C   0  0  0  0  0  0  0  0  0  0  0  0
    0.8201   -0.5184   -0.7311 C   0  0  0  0  0  0  0  0  0  0  0  0
   -0.3522   -1.0218    0.0024 N   0  0  0  0  0  0  0  0  0  0  0  0
   -1.6235   -0.5895   -0.6246 C   0  0  0  0  0  0  0  0  0  0  0  0
   -2.0566    0.7490    0.0204 C   0  0  0  0  0  0  0  0  0  0  0  0
   -3.3007    1.4233   -0.5895 C   0  0  0  0  0  0  0  0  0  0  0  0
   -4.6769    0.7737   -0.3227 C   0  0  0  0  0  0  0  0  0  0  0  0
   -4.8624    0.1255    1.0657 C   0  0  0  0  0  0  0  0  0  0  0  0
   -4.7087   -1.4069    1.0575 C   0  0  0  0  0  0  0  0  0  0  0  0
   -3.2660   -1.9170    0.8999 C   0  0  0  0  0  0  0  0  0  0  0  0
   -2.6928   -1.7088   -0.5188 C   0  0  0  0  0  0  0  0  0  0  0  0
    3.2494    0.0977   -0.1965 N   0  0  0  0  0  0  0  0  0  0  0  0
    3.4286    0.8523   -1.4270 C   0  0  0  0  0  0  0  0  0  0  0  0
    4.9174    1.1575   -1.5118 C   0  0  0  0  0  0  0  0  0  0  0  0
    5.4624    0.9725   -0.0990 C   0  0  0  0  0  0  0  0  0  0  0  0
    4.4600    0.0595    0.6152 C   0  0  1  0  0  0  0  0  0  0  0  0
    4.1711    0.5484    2.1172 B   0  0  0  0  0  0  0  0  0  0  0  0
    4.5022   -0.3199    3.2440 O   0  0  0  0  0  0  0  0  0  0  0  0
    3.5595    1.8532    2.3601 O   0  0  0  0  0  0  0  0  0  0  0  0
    0.6989    0.5617   -0.9582 H   0  0  0  0  0  0  0  0  0  0  0  0
    0.9339   -1.0685   -1.6914 H   0  0  0  0  0  0  0  0  0  0  0  0
   -0.2793   -2.0666    0.0104 H   0  0  0  0  0  0  0  0  0  0  0  0
   -1.4722   -0.4122   -1.7155 H   0  0  0  0  0  0  0  0  0  0  0  0
   -1.2241    1.4708   -0.1194 H   0  0  0  0  0  0  0  0  0  0  0  0
   -2.1453    0.6529    1.1191 H   0  0  0  0  0  0  0  0  0  0  0  0
   -3.3382    2.4583   -0.1828 H   0  0  0  0  0  0  0  0  0  0  0  0
   -3.1588    1.5240   -1.6875 H   0  0  0  0  0  0  0  0  0  0  0  0
   -4.9411    0.0673   -1.1349 H   0  0  0  0  0  0  0  0  0  0  0  0
   -5.4334    1.5840   -0.4196 H   0  0  0  0  0  0  0  0  0  0  0  0
   -5.9057    0.3340    1.3908 H   0  0  0  0  0  0  0  0  0  0  0  0
   -4.2200    0.5921    1.8399 H   0  0  0  0  0  0  0  0  0  0  0  0
   -5.0906   -1.7856    2.0309 H   0  0  0  0  0  0  0  0  0  0  0  0
   -5.3578   -1.8521    0.2718 H   0  0  0  0  0  0  0  0  0  0  0  0
   -3.2871   -3.0111    1.0993 H   0  0  0  0  0  0  0  0  0  0  0  0
   -2.6105   -1.4858    1.6851 H   0  0  0  0  0  0  0  0  0  0  0  0
   -2.2356   -2.6646   -0.8572 H   0  0  0  0  0  0  0  0  0  0  0  0
   -3.4947   -1.5428   -1.2627 H   0  0  0  0  0  0  0  0  0  0  0  0
    3.1103    0.2521   -2.3071 H   0  0  0  0  0  0  0  0  0  0  0  0
    2.8397    1.7934   -1.3752 H   0  0  0  0  0  0  0  0  0  0  0  0
    5.0986    2.1884   -1.8866 H   0  0  0  0  0  0  0  0  0  0  0  0
    5.4084    0.4298   -2.1952 H   0  0  0  0  0  0  0  0  0  0  0  0
    6.4757    0.5152   -0.1199 H   0  0  0  0  0  0  0  0  0  0  0  0
    5.5359    1.9734    0.3841 H   0  0  0  0  0  0  0  0  0  0  0  0
    4.8539   -0.9803    0.6356 H   0  0  0  0  0  0  0  0  0  0  0  0
    5.4319   -0.0757    3.4829 H   0  0  0  0  0  0  0  0  0  0  0  0
    2.5847    1.6778    2.3553 H   0  0  0  0  0  0  0  0  0  0  0  0
  1  2  2  0
  2  3  1  0
  3  4  1  0
  4  5  1  0
  5  6  1  0
  6  7  1  0
  7  8  1  0
  8  9  1  0
  9 10  1  0
 10 11  1  0
 11 12  1  0
  2 13  1  0
 13 14  1  0
 14 15  1  0
 15 16  1  0
 16 17  1  0
 17 18  1  0
 18 19  1  0
 18 20  1  0
 12  5  1  0
 17 13  1  0
  3 21  1  0
  3 22  1  0
  4 23  1  0
  5 24  1  0
  6 25  1  0
  6 26  1  0
  7 27  1  0
  7 28  1  0
  8 29  1  0
  8 30  1  0
  9 31  1  0
  9 32  1  0
 10 33  1  0
 10 34  1  0
 11 35  1  0
 11 36  1  0
 12 37  1  0
 12 38  1  0
 14 39  1  0
 14 40  1  0
 15 41  1  0
 15 42  1  0
 16 43  1  0
 16 44  1  0
 17 45  1  1
 19 46  1  0
 20 47  1  0
M  END
$$$$
