
     RDKit          3D

 38 39  0  0  0  0  0  0  0  0999 V2000
   -1.5809    0.7726   -2.0820 S   0  0  0  0  0  0  0  0  0  0  0  0
   -1.4820    0.1476   -0.7821 C   0  0  0  0  0  0  0  0  0  0  0  0
   -0.1217   -0.2713   -0.2777 C   0  0  0  0  0  0  0  0  0  0  0  0
    0.6683    0.9231    0.0647 N   0  0  0  0  0  0  0  0  0  0  0  0
    2.1255    0.6929    0.1523 C   0  0  0  0  0  0  0  0  0  0  0  0
    2.7748    0.6470   -1.2556 C   0  0  0  0  0  0  0  0  0  0  0  0
    4.0636   -0.1970   -1.2998 C   0  0  0  0  0  0  0  0  0  0  0  0
    4.8462   -0.0994    0.0148 C   0  0  0  0  0  0  0  0  0  0  0  0
    4.0308   -0.6244    1.2161 C   0  0  0  0  0  0  0  0  0  0  0  0
    2.5052   -0.5350    1.0113 C   0  0  0  0  0  0  0  0  0  0  0  0
   -2.7212   -0.1013    0.0732 C   0  0  0  0  0  0  0  0  0  0  0  0
   -3.4911    1.1650    0.4372 C   0  0  0  0  0  0  0  0  0  0  0  0
   -4.9057    0.6950    0.7551 C   0  0  0  0  0  0  0  0  0  0  0  0
   -5.0776   -0.6774    0.1000 C   0  0  0  0  0  0  0  0  0  0  0  0
   -3.7540   -1.0177   -0.5770 C   0  0  0  0  0  0  0  0  0  0  0  0
    0.3785   -0.8856   -1.0577 H   0  0  0  0  0  0  0  0  0  0  0  0
   -0.2275   -0.9196    0.6197 H   0  0  0  0  0  0  0  0  0  0  0  0
    0.3328    1.2763    0.9923 H   0  0  0  0  0  0  0  0  0  0  0  0
    2.5624    1.5786    0.6698 H   0  0  0  0  0  0  0  0  0  0  0  0
    3.0143    1.6875   -1.5674 H   0  0  0  0  0  0  0  0  0  0  0  0
    2.0712    0.2478   -2.0153 H   0  0  0  0  0  0  0  0  0  0  0  0
    3.8046   -1.2619   -1.4898 H   0  0  0  0  0  0  0  0  0  0  0  0
    4.7033    0.1482   -2.1406 H   0  0  0  0  0  0  0  0  0  0  0  0
    5.1205    0.9644    0.1899 H   0  0  0  0  0  0  0  0  0  0  0  0
    5.7915   -0.6774   -0.0727 H   0  0  0  0  0  0  0  0  0  0  0  0
    4.3010   -1.6855    1.4101 H   0  0  0  0  0  0  0  0  0  0  0  0
    4.3146   -0.0428    2.1203 H   0  0  0  0  0  0  0  0  0  0  0  0
    2.0042   -0.4756    2.0019 H   0  0  0  0  0  0  0  0  0  0  0  0
    2.1652   -1.4676    0.5110 H   0  0  0  0  0  0  0  0  0  0  0  0
   -2.4166   -0.5803    1.0314 H   0  0  0  0  0  0  0  0  0  0  0  0
   -3.0295    1.6790    1.3085 H   0  0  0  0  0  0  0  0  0  0  0  0
   -3.5322    1.8732   -0.4190 H   0  0  0  0  0  0  0  0  0  0  0  0
   -5.0335    0.6054    1.8565 H   0  0  0  0  0  0  0  0  0  0  0  0
   -5.6558    1.4181    0.3666 H   0  0  0  0  0  0  0  0  0  0  0  0
   -5.9037   -0.6603   -0.6442 H   0  0  0  0  0  0  0  0  0  0  0  0
   -5.3122   -1.4394    0.8755 H   0  0  0  0  0  0  0  0  0  0  0  0
   -3.8448   -0.8148   -1.6665 H   0  0  0  0  0  0  0  0  0  0  0  0
   -3.4883   -2.0875   -0.4311 H   0  0  0  0  0  0  0  0  0  0  0  0
  1  2  2  0
  2  3  1  0
  3  4  1  0
  4  5  1  0
  5  6  1  0
  6  7  1  0
  7  8  1  0
  8  9  1  0
  9 10  1  0
  2 11  1  0
 11 12  1  0
 12 13  1  0
 13 14  1  0
 14 15  1  0
 10  5  1  0
 15 11  1  0
  3 16  1  0
  3 17  1  0
  4 18  1  0
  5 19  1  0
  6 20  1  0
  6 21  1  0
  7 22  1  0
  7 23  1  0
  8 24  1  0
  8 25  1  0
  9 26  1  0
  9 27  1  0
 10 28  1  0
 10 29  1  0
 11 30  1  0
 12 31  1  0
 12 32  1  0
 13 33  1  0
 13 34  1  0
 14 35  1  0
 14 36  1  0
 15 37  1  0
 15 38  1  0
M  END
$$$$
