
     RDKit          3D

 62 66  0  0  0  0  0  0  0  0999 V2000
   -0.8595    3.7185   -2.7510 C   0  0  0  0  0  0  0  0  0  0  0  0
   -1.1779    3.1640   -1.4357 C   0  0  0  0  0  0  0  0  0  0  0  0
   -1.4397    2.7033   -0.3534 C   0  0  0  0  0  0  0  0  0  0  0  0
   -1.7567    2.1326    0.9588 C   0  0  0  0  0  0  0  0  0  0  0  0
   -1.6124    0.6762    0.9179 N   0  0  0  0  0  0  0  0  0  0  0  0
   -2.5847   -0.2619    0.7426 C   0  0  0  0  0  0  0  0  0  0  0  0
   -3.9629    0.0405    0.4648 N   0  0  0  0  0  0  0  0  0  0  0  0
   -4.3086    0.8919   -0.6858 C   0  0  0  0  0  0  0  0  0  0  0  0
   -5.6864    0.5311   -1.2605 C   0  0  0  0  0  0  0  0  0  0  0  0
   -5.8625   -0.9900   -1.2916 C   0  0  0  0  0  0  0  0  0  0  0  0
   -5.7888   -1.6127    0.1295 C   0  0  1  0  0  0  0  0  0  0  0  0
   -5.2021   -2.9541    0.0842 N   0  0  0  0  0  0  0  0  0  0  0  0
   -5.0177   -0.7282    1.1363 C   0  0  0  0  0  0  0  0  0  0  0  0
   -2.1258   -1.5384    0.8068 N   0  0  0  0  0  0  0  0  0  0  0  0
   -0.8067   -1.3702    1.0157 C   0  0  0  0  0  0  0  0  0  0  0  0
   -0.4904   -0.0548    1.0736 C   0  0  0  0  0  0  0  0  0  0  0  0
    0.8349    0.3392    1.2283 C   0  0  0  0  0  0  0  0  0  0  0  0
    1.1448    1.5618    1.2456 O   0  0  0  0  0  0  0  0  0  0  0  0
    1.7997   -0.6382    1.3331 N   0  0  0  0  0  0  0  0  0  0  0  0
    3.2208   -0.2516    1.4651 C   0  0  0  0  0  0  0  0  0  0  0  0
    3.9132   -0.0230    0.1255 C   0  0  0  0  0  0  0  0  0  0  0  0
    3.2229   -0.2296   -1.0882 C   0  0  0  0  0  0  0  0  0  0  0  0
    3.8460   -0.0166   -2.3155 C   0  0  0  0  0  0  0  0  0  0  0  0
    5.1711    0.4032   -2.3725 C   0  0  0  0  0  0  0  0  0  0  0  0
    5.7455    0.6013   -3.5872 F   0  0  0  0  0  0  0  0  0  0  0  0
    5.8955    0.6131   -1.1890 C   0  0  0  0  0  0  0  0  0  0  0  0
    7.2361    1.0331   -1.2475 C   0  0  0  0  0  0  0  0  0  0  0  0
    7.9630    1.2403   -0.0759 C   0  0  0  0  0  0  0  0  0  0  0  0
    7.3648    1.0311    1.1645 C   0  0  0  0  0  0  0  0  0  0  0  0
    6.0345    0.6146    1.2446 C   0  0  0  0  0  0  0  0  0  0  0  0
    5.2726    0.3992    0.0733 C   0  0  0  0  0  0  0  0  0  0  0  0
    1.4476   -1.9766    1.2578 C   0  0  0  0  0  0  0  0  0  0  0  0
    2.3452   -2.8652    1.3006 O   0  0  0  0  0  0  0  0  0  0  0  0
    0.1293   -2.3517    1.1205 N   0  0  0  0  0  0  0  0  0  0  0  0
   -0.2503   -3.7656    0.9992 C   0  0  0  0  0  0  0  0  0  0  0  0
   -0.8175    4.8251   -2.6858 H   0  0  0  0  0  0  0  0  0  0  0  0
    0.1237    3.3299   -3.0875 H   0  0  0  0  0  0  0  0  0  0  0  0
   -1.6433    3.4200   -3.4772 H   0  0  0  0  0  0  0  0  0  0  0  0
   -2.7880    2.4130    1.2530 H   0  0  0  0  0  0  0  0  0  0  0  0
   -1.0826    2.5663    1.7252 H   0  0  0  0  0  0  0  0  0  0  0  0
   -4.3144    1.9591   -0.3853 H   0  0  0  0  0  0  0  0  0  0  0  0
   -3.5498    0.7565   -1.4883 H   0  0  0  0  0  0  0  0  0  0  0  0
   -6.4875    0.9857   -0.6371 H   0  0  0  0  0  0  0  0  0  0  0  0
   -5.7795    0.9413   -2.2893 H   0  0  0  0  0  0  0  0  0  0  0  0
   -6.8432   -1.2370   -1.7531 H   0  0  0  0  0  0  0  0  0  0  0  0
   -5.0732   -1.4178   -1.9488 H   0  0  0  0  0  0  0  0  0  0  0  0
   -6.8284   -1.7112    0.5155 H   0  0  0  0  0  0  0  0  0  0  0  0
   -5.7833   -3.5516   -0.5480 H   0  0  0  0  0  0  0  0  0  0  0  0
   -4.2435   -2.9004   -0.3310 H   0  0  0  0  0  0  0  0  0  0  0  0
   -5.7269   -0.0098    1.6028 H   0  0  0  0  0  0  0  0  0  0  0  0
   -4.6034   -1.3434    1.9660 H   0  0  0  0  0  0  0  0  0  0  0  0
    3.2984    0.6743    2.0760 H   0  0  0  0  0  0  0  0  0  0  0  0
    3.7775   -1.0290    2.0321 H   0  0  0  0  0  0  0  0  0  0  0  0
    2.1930   -0.5570   -1.1051 H   0  0  0  0  0  0  0  0  0  0  0  0
    3.2935   -0.1794   -3.2322 H   0  0  0  0  0  0  0  0  0  0  0  0
    7.7260    1.2017   -2.1989 H   0  0  0  0  0  0  0  0  0  0  0  0
    8.9947    1.5633   -0.1300 H   0  0  0  0  0  0  0  0  0  0  0  0
    7.9350    1.1920    2.0705 H   0  0  0  0  0  0  0  0  0  0  0  0
    5.6189    0.4639    2.2309 H   0  0  0  0  0  0  0  0  0  0  0  0
   -1.3106   -3.9255    1.2900 H   0  0  0  0  0  0  0  0  0  0  0  0
   -0.1085   -4.0998   -0.0500 H   0  0  0  0  0  0  0  0  0  0  0  0
    0.3687   -4.3971    1.6718 H   0  0  0  0  0  0  0  0  0  0  0  0
  1  2  1  0
  2  3  3  0
  3  4  1  0
  4  5  1  0
  5  6  1  0
  6  7  1  0
  7  8  1  0
  8  9  1  0
  9 10  1  0
 10 11  1  0
 11 12  1  0
 11 13  1  0
  6 14  2  0
 14 15  1  0
 15 16  2  0
 16 17  1  0
 17 18  2  0
 17 19  1  0
 19 20  1  0
 20 21  1  0
 21 22  2  0
 22 23  1  0
 23 24  2  0
 24 25  1  0
 24 26  1  0
 26 27  2  0
 27 28  1  0
 28 29  2  0
 29 30  1  0
 30 31  2  0
 19 32  1  0
 32 33  2  0
 32 34  1  0
 34 35  1  0
 16  5  1  0
 31 21  1  0
 13  7  1  0
 34 15  1  0
 31 26  1  0
  1 36  1  0
  1 37  1  0
  1 38  1  0
  4 39  1  0
  4 40  1  0
  8 41  1  0
  8 42  1  0
  9 43  1  0
  9 44  1  0
 10 45  1  0
 10 46  1  0
 11 47  1  1
 12 48  1  0
 12 49  1  0
 13 50  1  0
 13 51  1  0
 20 52  1  0
 20 53  1  0
 22 54  1  0
 23 55  1  0
 27 56  1  0
 28 57  1  0
 29 58  1  0
 30 59  1  0
 35 60  1  0
 35 61  1  0
 35 62  1  0
M  END
$$$$
