
     RDKit          3D

 38 40  0  0  0  0  0  0  0  0999 V2000
   -4.0008    1.3702   -3.0600 N   0  0  0  0  0  0  0  0  0  0  0  0
   -4.0201    0.8591   -2.0219 C   0  0  0  0  0  0  0  0  0  0  0  0
   -4.0434    0.2086   -0.7013 C   0  0  2  0  0  0  0  0  0  0  0  0
   -4.6747    1.1204    0.3507 C   0  0  0  0  0  0  0  0  0  0  0  0
   -3.5057    1.7519    1.1031 C   0  0  2  0  0  0  0  0  0  0  0  0
   -3.2102    2.9880    0.5514 F   0  0  0  0  0  0  0  0  0  0  0  0
   -2.3304    0.8018    0.9034 C   0  0  0  0  0  0  0  0  0  0  0  0
   -2.6823   -0.0270   -0.2404 N   0  0  0  0  0  0  0  0  0  0  0  0
   -1.8191   -1.0293   -0.8153 C   0  0  0  0  0  0  0  0  0  0  0  0
   -2.2411   -1.7300   -1.7761 O   0  0  0  0  0  0  0  0  0  0  0  0
   -0.3888   -1.2042   -0.3447 C   0  0  1  0  0  0  0  0  0  0  0  0
    0.0319   -2.6065   -0.4270 N   0  0  0  0  0  0  0  0  0  0  0  0
    0.5485   -0.3085   -1.1749 C   0  0  0  0  0  0  0  0  0  0  0  0
    1.9489   -0.2974   -0.6068 C   0  0  0  0  0  0  0  0  0  0  0  0
    2.2139    0.5228    0.5150 C   0  0  0  0  0  0  0  0  0  0  0  0
    3.4953    0.5113    1.0533 C   0  0  0  0  0  0  0  0  0  0  0  0
    4.4833   -0.2593    0.5391 C   0  0  0  0  0  0  0  0  0  0  0  0
    4.2764   -1.0868   -0.5580 C   0  0  0  0  0  0  0  0  0  0  0  0
    2.9939   -1.1125   -1.1408 C   0  0  0  0  0  0  0  0  0  0  0  0
    2.7350   -2.2649   -2.6527 Br  0  0  0  0  0  0  0  0  0  0  0  0
    5.6414   -0.0720    1.2688 O   0  0  0  0  0  0  0  0  0  0  0  0
    5.3614    0.8766    2.3077 C   0  0  0  0  0  0  0  0  0  0  0  0
    3.9803    1.2227    2.1338 O   0  0  0  0  0  0  0  0  0  0  0  0
   -4.6039   -0.7494   -0.7666 H   0  0  0  0  0  0  0  0  0  0  0  0
   -5.2655    0.4998    1.0604 H   0  0  0  0  0  0  0  0  0  0  0  0
   -5.3510    1.8910   -0.0827 H   0  0  0  0  0  0  0  0  0  0  0  0
   -3.7428    1.8808    2.1816 H   0  0  0  0  0  0  0  0  0  0  0  0
   -1.3948    1.3678    0.7051 H   0  0  0  0  0  0  0  0  0  0  0  0
   -2.2021    0.1604    1.8022 H   0  0  0  0  0  0  0  0  0  0  0  0
   -0.3177   -0.8989    0.7208 H   0  0  0  0  0  0  0  0  0  0  0  0
   -0.6130   -3.1852    0.1593 H   0  0  0  0  0  0  0  0  0  0  0  0
   -0.0492   -2.9454   -1.4135 H   0  0  0  0  0  0  0  0  0  0  0  0
    0.5433   -0.6288   -2.2374 H   0  0  0  0  0  0  0  0  0  0  0  0
    0.1591    0.7337   -1.1717 H   0  0  0  0  0  0  0  0  0  0  0  0
    1.4441    1.1454    0.9537 H   0  0  0  0  0  0  0  0  0  0  0  0
    5.0827   -1.6941   -0.9483 H   0  0  0  0  0  0  0  0  0  0  0  0
    6.0000    1.7766    2.1870 H   0  0  0  0  0  0  0  0  0  0  0  0
    5.5173    0.4113    3.3035 H   0  0  0  0  0  0  0  0  0  0  0  0
  1  2  3  0
  2  3  1  0
  3  4  1  0
  4  5  1  0
  5  6  1  0
  5  7  1  0
  7  8  1  0
  8  9  1  0
  9 10  2  0
  9 11  1  0
 11 12  1  0
 11 13  1  0
 13 14  1  0
 14 15  2  0
 15 16  1  0
 16 17  2  0
 17 18  1  0
 18 19  2  0
 19 20  1  0
 17 21  1  0
 21 22  1  0
 22 23  1  0
  8  3  1  0
 19 14  1  0
 23 16  1  0
  3 24  1  6
  4 25  1  0
  4 26  1  0
  5 27  1  1
  7 28  1  0
  7 29  1  0
 11 30  1  1
 12 31  1  0
 12 32  1  0
 13 33  1  0
 13 34  1  0
 15 35  1  0
 18 36  1  0
 22 37  1  0
 22 38  1  0
M  END
$$$$
