
     RDKit          3D

 46 47  0  0  0  0  0  0  0  0999 V2000
    2.9271    2.8753    0.5890 C   0  0  0  0  0  0  0  0  0  0  0  0
    2.6900    1.7140   -0.1757 O   0  0  0  0  0  0  0  0  0  0  0  0
    1.3082    1.4055   -0.1973 C   0  0  0  0  0  0  0  0  0  0  0  0
    0.9566    0.3507    0.8700 C   0  0  0  0  0  0  0  0  0  0  0  0
    1.4370   -1.1016    0.5530 C   0  0  0  0  0  0  0  0  0  0  0  0
    0.8283   -1.6610   -0.6846 N   0  0  0  0  0  0  0  0  0  0  0  0
   -0.6493   -1.6428   -0.7689 C   0  0  0  0  0  0  0  0  0  0  0  0
   -1.1631   -0.5054   -1.6206 C   0  0  0  0  0  0  0  0  0  0  0  0
   -0.7082   -0.3721   -2.7894 O   0  0  0  0  0  0  0  0  0  0  0  0
   -2.1733    0.4124   -1.1488 N   0  0  0  0  0  0  0  0  0  0  0  0
   -3.0574    0.1846   -0.0091 C   0  0  2  0  0  0  0  0  0  0  0  0
   -3.8726   -1.0241   -0.2148 C   0  0  0  0  0  0  0  0  0  0  0  0
   -4.5120   -1.9749   -0.3769 N   0  0  0  0  0  0  0  0  0  0  0  0
   -3.9368    1.4340    0.0863 C   0  0  0  0  0  0  0  0  0  0  0  0
   -3.2096    2.5030   -0.7229 C   0  0  0  0  0  0  0  0  0  0  0  0
   -2.3477    1.7386   -1.7253 C   0  0  2  0  0  0  0  0  0  0  0  0
   -3.0201    1.6357   -3.0311 C   0  0  0  0  0  0  0  0  0  0  0  0
   -3.5484    1.5539   -4.0574 N   0  0  0  0  0  0  0  0  0  0  0  0
    1.1804   -2.0480    1.7428 C   0  0  0  0  0  0  0  0  0  0  0  0
    2.2275   -3.1510    1.6403 C   0  0  0  0  0  0  0  0  0  0  0  0
    3.3609   -2.5950    0.7853 C   0  0  0  0  0  0  0  0  0  0  0  0
    2.9700   -1.1665    0.4327 C   0  0  0  0  0  0  0  0  0  0  0  0
    2.4930    3.7698    0.0905 H   0  0  0  0  0  0  0  0  0  0  0  0
    2.5270    2.7751    1.6221 H   0  0  0  0  0  0  0  0  0  0  0  0
    4.0226    3.0303    0.6663 H   0  0  0  0  0  0  0  0  0  0  0  0
    1.0608    1.0266   -1.2063 H   0  0  0  0  0  0  0  0  0  0  0  0
    0.6560    2.3006   -0.0550 H   0  0  0  0  0  0  0  0  0  0  0  0
    1.3860    0.6812    1.8404 H   0  0  0  0  0  0  0  0  0  0  0  0
   -0.1401    0.3551    1.0196 H   0  0  0  0  0  0  0  0  0  0  0  0
    1.2645   -1.2519   -1.5432 H   0  0  0  0  0  0  0  0  0  0  0  0
   -1.1166   -1.6313    0.2311 H   0  0  0  0  0  0  0  0  0  0  0  0
   -0.9767   -2.5904   -1.2450 H   0  0  0  0  0  0  0  0  0  0  0  0
   -2.4644    0.0825    0.9232 H   0  0  0  0  0  0  0  0  0  0  0  0
   -4.0717    1.7541    1.1425 H   0  0  0  0  0  0  0  0  0  0  0  0
   -4.9394    1.2649   -0.3688 H   0  0  0  0  0  0  0  0  0  0  0  0
   -3.9232    3.2085   -1.2047 H   0  0  0  0  0  0  0  0  0  0  0  0
   -2.5471    3.0826   -0.0424 H   0  0  0  0  0  0  0  0  0  0  0  0
   -1.3646    2.2428   -1.8498 H   0  0  0  0  0  0  0  0  0  0  0  0
    1.3338   -1.5087    2.7046 H   0  0  0  0  0  0  0  0  0  0  0  0
    0.1621   -2.4843    1.7654 H   0  0  0  0  0  0  0  0  0  0  0  0
    2.5937   -3.4396    2.6499 H   0  0  0  0  0  0  0  0  0  0  0  0
    1.7869   -4.0463    1.1486 H   0  0  0  0  0  0  0  0  0  0  0  0
    4.3263   -2.6149    1.3366 H   0  0  0  0  0  0  0  0  0  0  0  0
    3.4645   -3.1972   -0.1443 H   0  0  0  0  0  0  0  0  0  0  0  0
    3.3335   -0.8926   -0.5817 H   0  0  0  0  0  0  0  0  0  0  0  0
    3.4459   -0.4820    1.1711 H   0  0  0  0  0  0  0  0  0  0  0  0
  1  2  1  0
  2  3  1  0
  3  4  1  0
  4  5  1  0
  5  6  1  0
  6  7  1  0
  7  8  1  0
  8  9  2  0
  8 10  1  0
 10 11  1  0
 11 12  1  0
 12 13  3  0
 11 14  1  0
 14 15  1  0
 15 16  1  0
 16 17  1  0
 17 18  3  0
  5 19  1  0
 19 20  1  0
 20 21  1  0
 21 22  1  0
 22  5  1  0
 16 10  1  0
  1 23  1  0
  1 24  1  0
  1 25  1  0
  3 26  1  0
  3 27  1  0
  4 28  1  0
  4 29  1  0
  6 30  1  0
  7 31  1  0
  7 32  1  0
 11 33  1  1
 14 34  1  0
 14 35  1  0
 15 36  1  0
 15 37  1  0
 16 38  1  6
 19 39  1  0
 19 40  1  0
 20 41  1  0
 20 42  1  0
 21 43  1  0
 21 44  1  0
 22 45  1  0
 22 46  1  0
M  END
$$$$
