
     RDKit          3D

 47 50  0  0  0  0  0  0  0  0999 V2000
    1.1432   -2.0575   -0.9377 N   0  0  0  0  0  0  0  0  0  0  0  0
    1.3497   -0.7234   -0.3603 C   0  0  1  0  0  0  0  0  0  0  0  0
    0.1030   -0.3066    0.4636 C   0  0  0  0  0  0  0  0  0  0  0  0
   -1.0388    0.1054   -0.4324 C   0  0  0  0  0  0  0  0  0  0  0  0
   -0.9974    1.2611   -0.9368 O   0  0  0  0  0  0  0  0  0  0  0  0
   -2.1446   -0.7763   -0.7521 N   0  0  0  0  0  0  0  0  0  0  0  0
   -2.4172   -1.9976   -0.0003 C   0  0  0  0  0  0  0  0  0  0  0  0
   -3.0076   -1.6324    1.3126 C   0  0  0  0  0  0  0  0  0  0  0  0
   -2.8276   -2.4027    2.2934 O   0  0  0  0  0  0  0  0  0  0  0  0
   -3.7432   -0.4144    1.5034 N   0  0  0  0  0  0  0  0  0  0  0  0
   -4.5772    0.2758    0.5463 C   0  0  0  0  0  0  0  0  0  0  0  0
   -5.6448    0.9573    1.0499 N   0  0  0  0  0  0  0  0  0  0  0  0
   -6.4973    1.6663    0.2711 C   0  0  0  0  0  0  0  0  0  0  0  0
   -6.2828    1.7152   -1.0983 C   0  0  0  0  0  0  0  0  0  0  0  0
   -5.2193    1.0619   -1.6251 N   0  0  0  0  0  0  0  0  0  0  0  0
   -4.3421    0.3502   -0.8634 C   0  0  0  0  0  0  0  0  0  0  0  0
   -3.2201   -0.3121   -1.6226 C   0  0  0  0  0  0  0  0  0  0  0  0
    2.6395   -0.6915    0.5198 C   0  0  1  0  0  0  0  0  0  0  0  0
    3.7339   -1.7015    0.0811 C   0  0  0  0  0  0  0  0  0  0  0  0
    5.0887   -1.0211    0.3174 C   0  0  0  0  0  0  0  0  0  0  0  0
    4.7385    0.4140    0.3854 C   0  0  0  0  0  0  0  0  0  0  0  0
    5.6367    1.4835    0.3858 C   0  0  0  0  0  0  0  0  0  0  0  0
    5.1336    2.7887    0.4711 C   0  0  0  0  0  0  0  0  0  0  0  0
    5.9868    3.8426    0.4684 F   0  0  0  0  0  0  0  0  0  0  0  0
    3.7478    3.0047    0.5617 C   0  0  0  0  0  0  0  0  0  0  0  0
    3.2631    4.2684    0.6452 F   0  0  0  0  0  0  0  0  0  0  0  0
    2.8620    1.9161    0.5708 C   0  0  0  0  0  0  0  0  0  0  0  0
    3.3788    0.6151    0.4751 C   0  0  0  0  0  0  0  0  0  0  0  0
    0.9324   -2.7418   -0.1750 H   0  0  0  0  0  0  0  0  0  0  0  0
    0.3252   -2.0315   -1.5884 H   0  0  0  0  0  0  0  0  0  0  0  0
    1.4892   -0.0080   -1.2030 H   0  0  0  0  0  0  0  0  0  0  0  0
   -0.1861   -1.1159    1.1625 H   0  0  0  0  0  0  0  0  0  0  0  0
    0.3379    0.5517    1.1220 H   0  0  0  0  0  0  0  0  0  0  0  0
   -1.4949   -2.5997    0.1246 H   0  0  0  0  0  0  0  0  0  0  0  0
   -3.1399   -2.6478   -0.5394 H   0  0  0  0  0  0  0  0  0  0  0  0
   -3.8860   -0.1388    2.5018 H   0  0  0  0  0  0  0  0  0  0  0  0
   -7.3349    2.1867    0.7159 H   0  0  0  0  0  0  0  0  0  0  0  0
   -6.9521    2.2713   -1.7409 H   0  0  0  0  0  0  0  0  0  0  0  0
   -2.8203    0.3950   -2.3817 H   0  0  0  0  0  0  0  0  0  0  0  0
   -3.6370   -1.1646   -2.2016 H   0  0  0  0  0  0  0  0  0  0  0  0
    2.3825   -0.9091    1.5810 H   0  0  0  0  0  0  0  0  0  0  0  0
    3.6576   -2.6516    0.6531 H   0  0  0  0  0  0  0  0  0  0  0  0
    3.6533   -1.9266   -1.0055 H   0  0  0  0  0  0  0  0  0  0  0  0
    5.7957   -1.2229   -0.5162 H   0  0  0  0  0  0  0  0  0  0  0  0
    5.5268   -1.3454    1.2859 H   0  0  0  0  0  0  0  0  0  0  0  0
    6.7030    1.3083    0.3204 H   0  0  0  0  0  0  0  0  0  0  0  0
    1.8025    2.1017    0.6397 H   0  0  0  0  0  0  0  0  0  0  0  0
  1  2  1  0
  2  3  1  0
  3  4  1  0
  4  5  2  0
  4  6  1  0
  6  7  1  0
  7  8  1  0
  8  9  2  0
  8 10  1  0
 10 11  1  0
 11 12  2  0
 12 13  1  0
 13 14  2  0
 14 15  1  0
 15 16  2  0
 16 17  1  0
  2 18  1  0
 18 19  1  0
 19 20  1  0
 20 21  1  0
 21 22  2  0
 22 23  1  0
 23 24  1  0
 23 25  2  0
 25 26  1  0
 25 27  1  0
 27 28  2  0
 17  6  1  0
 28 18  1  0
 16 11  1  0
 28 21  1  0
  1 29  1  0
  1 30  1  0
  2 31  1  6
  3 32  1  0
  3 33  1  0
  7 34  1  0
  7 35  1  0
 10 36  1  0
 13 37  1  0
 14 38  1  0
 17 39  1  0
 17 40  1  0
 18 41  1  1
 19 42  1  0
 19 43  1  0
 20 44  1  0
 20 45  1  0
 22 46  1  0
 27 47  1  0
M  END
$$$$
