
     RDKit          3D

 53 54  0  0  0  0  0  0  0  0999 V2000
    2.3402   -0.4473    1.6076 O   0  0  0  0  0  0  0  0  0  0  0  0
    2.4299    0.2543    0.5639 C   0  0  0  0  0  0  0  0  0  0  0  0
    1.3299    1.2251    0.2487 C   0  0  0  0  0  0  0  0  0  0  0  0
    0.3724    0.5987   -0.6815 N   0  0  0  0  0  0  0  0  0  0  0  0
   -0.9898    0.3854   -0.1465 C   0  0  0  0  0  0  0  0  0  0  0  0
   -1.7165    1.7378    0.1549 C   0  0  0  0  0  0  0  0  0  0  0  0
   -2.7487    2.1672   -0.9129 C   0  0  0  0  0  0  0  0  0  0  0  0
   -3.9057    1.1826   -1.1827 C   0  0  0  0  0  0  0  0  0  0  0  0
   -4.8332    0.9331    0.0263 C   0  0  0  0  0  0  0  0  0  0  0  0
   -5.4453   -0.4864    0.0145 C   0  0  0  0  0  0  0  0  0  0  0  0
   -4.7730   -1.4859    0.9805 C   0  0  0  0  0  0  0  0  0  0  0  0
   -3.2813   -1.7625    0.6854 C   0  0  0  0  0  0  0  0  0  0  0  0
   -2.3438   -0.9906    1.6397 C   0  0  0  0  0  0  0  0  0  0  0  0
   -0.9695   -0.6167    1.0447 C   0  0  0  0  0  0  0  0  0  0  0  0
    3.5628    0.0911   -0.3138 N   0  0  0  0  0  0  0  0  0  0  0  0
    3.6025    0.6054   -1.6741 C   0  0  0  0  0  0  0  0  0  0  0  0
    4.7467   -0.1262   -2.3615 C   0  0  0  0  0  0  0  0  0  0  0  0
    5.6100   -0.6999   -1.2426 C   0  0  0  0  0  0  0  0  0  0  0  0
    4.7028   -0.7661   -0.0090 C   0  0  1  0  0  0  0  0  0  0  0  0
    5.4624   -0.2804    1.3211 B   0  0  0  0  0  0  0  0  0  0  0  0
    5.6744   -1.2164    2.4223 O   0  0  0  0  0  0  0  0  0  0  0  0
    5.9060    1.1062    1.4518 O   0  0  0  0  0  0  0  0  0  0  0  0
    0.8554    1.5636    1.1946 H   0  0  0  0  0  0  0  0  0  0  0  0
    1.7715    2.1363   -0.2117 H   0  0  0  0  0  0  0  0  0  0  0  0
    0.3001    1.1885   -1.5445 H   0  0  0  0  0  0  0  0  0  0  0  0
   -1.5208   -0.1361   -0.9589 H   0  0  0  0  0  0  0  0  0  0  0  0
   -2.1849    1.7497    1.1545 H   0  0  0  0  0  0  0  0  0  0  0  0
   -0.9733    2.5605    0.2085 H   0  0  0  0  0  0  0  0  0  0  0  0
   -3.1825    3.1450   -0.6095 H   0  0  0  0  0  0  0  0  0  0  0  0
   -2.2087    2.3368   -1.8699 H   0  0  0  0  0  0  0  0  0  0  0  0
   -4.5255    1.6121   -2.0002 H   0  0  0  0  0  0  0  0  0  0  0  0
   -3.5180    0.2396   -1.6067 H   0  0  0  0  0  0  0  0  0  0  0  0
   -4.3370    1.1321    0.9923 H   0  0  0  0  0  0  0  0  0  0  0  0
   -5.6607    1.6746   -0.0273 H   0  0  0  0  0  0  0  0  0  0  0  0
   -6.5106   -0.4032    0.3228 H   0  0  0  0  0  0  0  0  0  0  0  0
   -5.4589   -0.9102   -1.0138 H   0  0  0  0  0  0  0  0  0  0  0  0
   -4.9196   -1.1491    2.0304 H   0  0  0  0  0  0  0  0  0  0  0  0
   -5.3249   -2.4472    0.8895 H   0  0  0  0  0  0  0  0  0  0  0  0
   -3.0880   -2.8482    0.8319 H   0  0  0  0  0  0  0  0  0  0  0  0
   -3.0608   -1.5776   -0.3801 H   0  0  0  0  0  0  0  0  0  0  0  0
   -2.1594   -1.6393    2.5243 H   0  0  0  0  0  0  0  0  0  0  0  0
   -2.8318   -0.0944    2.0603 H   0  0  0  0  0  0  0  0  0  0  0  0
   -0.4614   -1.5502    0.7175 H   0  0  0  0  0  0  0  0  0  0  0  0
   -0.3686   -0.1960    1.8764 H   0  0  0  0  0  0  0  0  0  0  0  0
    2.6489    0.3963   -2.2041 H   0  0  0  0  0  0  0  0  0  0  0  0
    3.7945    1.6998   -1.6528 H   0  0  0  0  0  0  0  0  0  0  0  0
    4.3400   -0.9584   -2.9777 H   0  0  0  0  0  0  0  0  0  0  0  0
    5.3296    0.5587   -3.0150 H   0  0  0  0  0  0  0  0  0  0  0  0
    5.9908   -1.7092   -1.5126 H   0  0  0  0  0  0  0  0  0  0  0  0
    6.4816   -0.0245   -1.0892 H   0  0  0  0  0  0  0  0  0  0  0  0
    4.3466   -1.8101    0.1327 H   0  0  0  0  0  0  0  0  0  0  0  0
    4.8666   -1.1253    2.9881 H   0  0  0  0  0  0  0  0  0  0  0  0
    6.8368    1.1071    1.1137 H   0  0  0  0  0  0  0  0  0  0  0  0
  1  2  2  0
  2  3  1  0
  3  4  1  0
  4  5  1  0
  5  6  1  0
  6  7  1  0
  7  8  1  0
  8  9  1  0
  9 10  1  0
 10 11  1  0
 11 12  1  0
 12 13  1  0
 13 14  1  0
  2 15  1  0
 15 16  1  0
 16 17  1  0
 17 18  1  0
 18 19  1  0
 19 20  1  0
 20 21  1  0
 20 22  1  0
 14  5  1  0
 19 15  1  0
  3 23  1  0
  3 24  1  0
  4 25  1  0
  5 26  1  0
  6 27  1  0
  6 28  1  0
  7 29  1  0
  7 30  1  0
  8 31  1  0
  8 32  1  0
  9 33  1  0
  9 34  1  0
 10 35  1  0
 10 36  1  0
 11 37  1  0
 11 38  1  0
 12 39  1  0
 12 40  1  0
 13 41  1  0
 13 42  1  0
 14 43  1  0
 14 44  1  0
 16 45  1  0
 16 46  1  0
 17 47  1  0
 17 48  1  0
 18 49  1  0
 18 50  1  0
 19 51  1  1
 21 52  1  0
 22 53  1  0
M  END
$$$$
