
     RDKit          3D

 57 57  0  0  0  0  0  0  0  0999 V2000
    3.2256    0.8871   -3.0521 C   0  0  0  0  0  0  0  0  0  0  0  0
    3.1539   -0.0724   -2.0213 O   0  0  0  0  0  0  0  0  0  0  0  0
    3.3686    0.5578   -0.7769 C   0  0  0  0  0  0  0  0  0  0  0  0
    3.3969   -0.4931    0.3479 C   0  0  1  0  0  0  0  0  0  0  0  0
    3.9286    0.1141    1.6530 C   0  0  0  0  0  0  0  0  0  0  0  0
    3.0235   -0.4115    2.7594 C   0  0  0  0  0  0  0  0  0  0  0  0
    1.7291   -0.8188    2.0746 C   0  0  0  0  0  0  0  0  0  0  0  0
    2.0569   -0.9828    0.6660 N   0  0  0  0  0  0  0  0  0  0  0  0
    1.2741   -1.8066   -0.2218 C   0  0  0  0  0  0  0  0  0  0  0  0
    1.8200   -2.3425   -1.2240 O   0  0  0  0  0  0  0  0  0  0  0  0
   -0.1773   -2.0999    0.0582 C   0  0  0  0  0  0  0  0  0  0  0  0
   -1.0954   -1.8165   -1.1465 C   0  0  0  0  0  0  0  0  0  0  0  0
   -1.1574   -0.3375   -1.6039 C   0  0  2  0  0  0  0  0  0  0  0  0
    0.0700    0.0378   -2.3088 N   0  0  0  0  0  0  0  0  0  0  0  0
   -1.4067    0.5996   -0.4411 C   0  0  0  0  0  0  0  0  0  0  0  0
   -0.4251    1.1776    0.1021 O   0  0  0  0  0  0  0  0  0  0  0  0
   -2.7272    0.7928    0.1020 N   0  0  0  0  0  0  0  0  0  0  0  0
   -3.9565    0.4051   -0.5725 C   0  0  0  0  0  0  0  0  0  0  0  0
   -5.0847    0.7666    0.3848 C   0  0  0  0  0  0  0  0  0  0  0  0
   -4.4817    1.7462    1.3877 C   0  0  0  0  0  0  0  0  0  0  0  0
   -2.9725    1.5066    1.3465 C   0  0  1  0  0  0  0  0  0  0  0  0
   -2.5288    0.6871    2.4862 C   0  0  0  0  0  0  0  0  0  0  0  0
   -2.1777    0.0417    3.3803 N   0  0  0  0  0  0  0  0  0  0  0  0
    0.8407    0.8541   -1.2337 O   0  0  0  0  0  0  0  0  0  0  0  0
    0.4807    0.1107   -0.2820 C   0  0  0  0  0  0  0  0  0  0  0  0
    1.4286   -0.6357    0.4115 O   0  0  0  0  0  0  0  0  0  0  0  0
   -0.9527    0.0765    0.1392 C   0  0  0  0  0  0  0  0  0  0  0  0
   -1.2206   -1.1033    0.8091 F   0  0  0  0  0  0  0  0  0  0  0  0
   -1.7737    0.1602   -0.9708 F   0  0  0  0  0  0  0  0  0  0  0  0
   -1.2096    1.1442    0.9782 F   0  0  0  0  0  0  0  0  0  0  0  0
    2.9844    0.3902   -4.0141 H   0  0  0  0  0  0  0  0  0  0  0  0
    4.2530    1.3052   -3.1362 H   0  0  0  0  0  0  0  0  0  0  0  0
    2.4857    1.7048   -2.9022 H   0  0  0  0  0  0  0  0  0  0  0  0
    4.3503    1.0876   -0.7821 H   0  0  0  0  0  0  0  0  0  0  0  0
    2.5589    1.2940   -0.5646 H   0  0  0  0  0  0  0  0  0  0  0  0
    4.0452   -1.3485    0.0528 H   0  0  0  0  0  0  0  0  0  0  0  0
    4.9868   -0.1776    1.8300 H   0  0  0  0  0  0  0  0  0  0  0  0
    3.8632    1.2254    1.6412 H   0  0  0  0  0  0  0  0  0  0  0  0
    2.8438    0.3592    3.5401 H   0  0  0  0  0  0  0  0  0  0  0  0
    3.4939   -1.3038    3.2286 H   0  0  0  0  0  0  0  0  0  0  0  0
    1.3564   -1.7729    2.5078 H   0  0  0  0  0  0  0  0  0  0  0  0
    0.9608   -0.0243    2.1893 H   0  0  0  0  0  0  0  0  0  0  0  0
   -0.2635   -3.1757    0.3213 H   0  0  0  0  0  0  0  0  0  0  0  0
   -0.5441   -1.5301    0.9358 H   0  0  0  0  0  0  0  0  0  0  0  0
   -2.1197   -2.1423   -0.8673 H   0  0  0  0  0  0  0  0  0  0  0  0
   -0.7923   -2.4588   -2.0021 H   0  0  0  0  0  0  0  0  0  0  0  0
   -2.0016   -0.2430   -2.3225 H   0  0  0  0  0  0  0  0  0  0  0  0
   -0.0451    1.0118   -2.6736 H   0  0  0  0  0  0  0  0  0  0  0  0
    0.1702   -0.5731   -3.1520 H   0  0  0  0  0  0  0  0  0  0  0  0
   -3.9668   -0.6848   -0.7812 H   0  0  0  0  0  0  0  0  0  0  0  0
   -4.0570    0.9755   -1.5213 H   0  0  0  0  0  0  0  0  0  0  0  0
   -5.9464    1.2168   -0.1542 H   0  0  0  0  0  0  0  0  0  0  0  0
   -5.4256   -0.1464    0.9212 H   0  0  0  0  0  0  0  0  0  0  0  0
   -4.9210    1.6100    2.4013 H   0  0  0  0  0  0  0  0  0  0  0  0
   -4.6951    2.7848    1.0508 H   0  0  0  0  0  0  0  0  0  0  0  0
   -2.4304    2.4774    1.3527 H   0  0  0  0  0  0  0  0  0  0  0  0
    2.4065   -0.6069    0.1486 H   0  0  0  0  0  0  0  0  0  0  0  0
  1  2  1  0
  2  3  1  0
  3  4  1  0
  4  5  1  0
  5  6  1  0
  6  7  1  0
  7  8  1  0
  8  9  1  0
  9 10  2  0
  9 11  1  0
 11 12  1  0
 12 13  1  0
 13 14  1  0
 13 15  1  0
 15 16  2  0
 15 17  1  0
 17 18  1  0
 18 19  1  0
 19 20  1  0
 20 21  1  0
 21 22  1  0
 22 23  3  0
 24 25  2  0
 25 26  1  0
 25 27  1  0
 27 28  1  0
 27 29  1  0
 27 30  1  0
  8  4  1  0
 21 17  1  0
  1 31  1  0
  1 32  1  0
  1 33  1  0
  3 34  1  0
  3 35  1  0
  4 36  1  6
  5 37  1  0
  5 38  1  0
  6 39  1  0
  6 40  1  0
  7 41  1  0
  7 42  1  0
 11 43  1  0
 11 44  1  0
 12 45  1  0
 12 46  1  0
 13 47  1  6
 14 48  1  0
 14 49  1  0
 18 50  1  0
 18 51  1  0
 19 52  1  0
 19 53  1  0
 20 54  1  0
 20 55  1  0
 21 56  1  6
 26 57  1  0
M  END
$$$$
