
     RDKit          3D

 47 48  0  0  0  0  0  0  0  0999 V2000
   -3.5323    0.5328    2.7411 C   0  0  0  0  0  0  0  0  0  0  0  0
   -3.6849   -0.7637    1.9451 C   0  0  0  0  0  0  0  0  0  0  0  0
   -3.3565   -0.5684    0.4425 C   0  0  2  0  0  0  0  0  0  0  0  0
   -3.6228   -1.7905   -0.3880 C   0  0  0  0  0  0  0  0  0  0  0  0
   -3.9865   -2.8719    0.1491 O   0  0  0  0  0  0  0  0  0  0  0  0
   -3.3566   -1.7582   -1.7953 N   0  0  0  0  0  0  0  0  0  0  0  0
   -3.4811   -0.5526   -2.6227 C   0  0  0  0  0  0  0  0  0  0  0  0
   -2.7305    0.6931   -2.0883 C   0  0  0  0  0  0  0  0  0  0  0  0
   -1.5632    0.4113   -1.1247 C   0  0  0  0  0  0  0  0  0  0  0  0
   -1.9614   -0.1434    0.1864 N   0  0  0  0  0  0  0  0  0  0  0  0
   -0.8829   -0.6326    1.0090 C   0  0  0  0  0  0  0  0  0  0  0  0
   -0.8403   -1.8500    1.3344 O   0  0  0  0  0  0  0  0  0  0  0  0
    0.2157    0.2892    1.4607 C   0  0  0  0  0  0  0  0  0  0  0  0
    1.4996    0.1053    0.6306 C   0  0  2  0  0  0  0  0  0  0  0  0
    2.0257   -1.2510    0.8215 N   0  0  0  0  0  0  0  0  0  0  0  0
    2.5442    1.1763    1.0196 C   0  0  0  0  0  0  0  0  0  0  0  0
    3.7554    1.1335    0.1208 C   0  0  0  0  0  0  0  0  0  0  0  0
    4.9252    0.4793    0.5440 C   0  0  0  0  0  0  0  0  0  0  0  0
    6.0418    0.4149   -0.2953 C   0  0  0  0  0  0  0  0  0  0  0  0
    7.1658   -0.2179    0.1231 F   0  0  0  0  0  0  0  0  0  0  0  0
    5.9979    0.9988   -1.5649 C   0  0  0  0  0  0  0  0  0  0  0  0
    7.0797    0.9360   -2.3801 F   0  0  0  0  0  0  0  0  0  0  0  0
    4.8366    1.6455   -1.9967 C   0  0  0  0  0  0  0  0  0  0  0  0
    3.7166    1.7127   -1.1615 C   0  0  0  0  0  0  0  0  0  0  0  0
    2.5967    2.3400   -1.6027 F   0  0  0  0  0  0  0  0  0  0  0  0
   -4.1883    1.3240    2.3200 H   0  0  0  0  0  0  0  0  0  0  0  0
   -3.8263    0.3554    3.7970 H   0  0  0  0  0  0  0  0  0  0  0  0
   -2.4810    0.8859    2.7261 H   0  0  0  0  0  0  0  0  0  0  0  0
   -3.0585   -1.5566    2.4028 H   0  0  0  0  0  0  0  0  0  0  0  0
   -4.7428   -1.0942    2.0395 H   0  0  0  0  0  0  0  0  0  0  0  0
   -4.0589    0.2190    0.1032 H   0  0  0  0  0  0  0  0  0  0  0  0
   -3.2047   -2.6688   -2.2851 H   0  0  0  0  0  0  0  0  0  0  0  0
   -3.1039   -0.7869   -3.6422 H   0  0  0  0  0  0  0  0  0  0  0  0
   -4.5585   -0.3028   -2.7293 H   0  0  0  0  0  0  0  0  0  0  0  0
   -2.3186    1.2404   -2.9644 H   0  0  0  0  0  0  0  0  0  0  0  0
   -3.4428    1.4051   -1.6207 H   0  0  0  0  0  0  0  0  0  0  0  0
   -1.0242    1.3686   -0.9574 H   0  0  0  0  0  0  0  0  0  0  0  0
   -0.8595   -0.2891   -1.6266 H   0  0  0  0  0  0  0  0  0  0  0  0
   -0.1413    1.3387    1.3776 H   0  0  0  0  0  0  0  0  0  0  0  0
    0.4300    0.0982    2.5350 H   0  0  0  0  0  0  0  0  0  0  0  0
    1.2430    0.2412   -0.4430 H   0  0  0  0  0  0  0  0  0  0  0  0
    2.7761   -1.4307    0.1161 H   0  0  0  0  0  0  0  0  0  0  0  0
    2.4533   -1.3323    1.7729 H   0  0  0  0  0  0  0  0  0  0  0  0
    2.0857    2.1871    0.9482 H   0  0  0  0  0  0  0  0  0  0  0  0
    2.8458    1.0425    2.0821 H   0  0  0  0  0  0  0  0  0  0  0  0
    4.9700    0.0157    1.5218 H   0  0  0  0  0  0  0  0  0  0  0  0
    4.8033    2.0939   -2.9814 H   0  0  0  0  0  0  0  0  0  0  0  0
  1  2  1  0
  2  3  1  0
  3  4  1  0
  4  5  2  0
  4  6  1  0
  6  7  1  0
  7  8  1  0
  8  9  1  0
  9 10  1  0
 10 11  1  0
 11 12  2  0
 11 13  1  0
 13 14  1  0
 14 15  1  0
 14 16  1  0
 16 17  1  0
 17 18  2  0
 18 19  1  0
 19 20  1  0
 19 21  2  0
 21 22  1  0
 21 23  1  0
 23 24  2  0
 24 25  1  0
 10  3  1  0
 24 17  1  0
  1 26  1  0
  1 27  1  0
  1 28  1  0
  2 29  1  0
  2 30  1  0
  3 31  1  6
  6 32  1  0
  7 33  1  0
  7 34  1  0
  8 35  1  0
  8 36  1  0
  9 37  1  0
  9 38  1  0
 13 39  1  0
 13 40  1  0
 14 41  1  6
 15 42  1  0
 15 43  1  0
 16 44  1  0
 16 45  1  0
 18 46  1  0
 23 47  1  0
M  END
$$$$
