
     RDKit          3D

 32 33  0  0  0  0  0  0  0  0999 V2000
    1.0727    2.5959   -2.0568 N   0  0  0  0  0  0  0  0  0  0  0  0
    1.5464    2.1271   -1.1108 C   0  0  0  0  0  0  0  0  0  0  0  0
    2.1482    1.5301    0.0929 C   0  0  2  0  0  0  0  0  0  0  0  0
    3.6069    1.1441   -0.1519 C   0  0  0  0  0  0  0  0  0  0  0  0
    3.5970   -0.3595   -0.4177 C   0  0  2  0  0  0  0  0  0  0  0  0
    3.5617   -0.5904   -1.7835 F   0  0  0  0  0  0  0  0  0  0  0  0
    2.3185   -0.8812    0.2284 C   0  0  0  0  0  0  0  0  0  0  0  0
    1.4687    0.2846    0.4199 N   0  0  0  0  0  0  0  0  0  0  0  0
    0.1380    0.2382    0.9725 C   0  0  0  0  0  0  0  0  0  0  0  0
   -0.4610    1.3177    1.2345 O   0  0  0  0  0  0  0  0  0  0  0  0
   -0.5882   -1.0741    1.1799 C   0  0  1  0  0  0  0  0  0  0  0  0
   -1.5510   -0.9581    2.2786 N   0  0  0  0  0  0  0  0  0  0  0  0
   -1.2941   -1.5229   -0.1162 C   0  0  0  0  0  0  0  0  0  0  0  0
   -2.3409   -0.5504   -0.5781 C   0  0  0  0  0  0  0  0  0  0  0  0
   -3.6419   -0.4619   -0.0996 C   0  0  0  0  0  0  0  0  0  0  0  0
   -4.3767    0.5721   -0.6918 C   0  0  0  0  0  0  0  0  0  0  0  0
   -3.6576    1.3010   -1.6306 C   0  0  0  0  0  0  0  0  0  0  0  0
   -2.1058    0.6592   -1.7230 S   0  0  0  0  0  0  0  0  0  0  0  0
    2.0778    2.2470    0.9399 H   0  0  0  0  0  0  0  0  0  0  0  0
    4.0771    1.7078   -0.9887 H   0  0  0  0  0  0  0  0  0  0  0  0
    4.1939    1.3417    0.7723 H   0  0  0  0  0  0  0  0  0  0  0  0
    4.4967   -0.8508    0.0123 H   0  0  0  0  0  0  0  0  0  0  0  0
    1.8228   -1.6269   -0.4286 H   0  0  0  0  0  0  0  0  0  0  0  0
    2.5479   -1.3399    1.2146 H   0  0  0  0  0  0  0  0  0  0  0  0
    0.1513   -1.8585    1.4534 H   0  0  0  0  0  0  0  0  0  0  0  0
   -1.9844   -1.8967    2.4388 H   0  0  0  0  0  0  0  0  0  0  0  0
   -1.0244   -0.7311    3.1539 H   0  0  0  0  0  0  0  0  0  0  0  0
   -0.5435   -1.6549   -0.9242 H   0  0  0  0  0  0  0  0  0  0  0  0
   -1.7687   -2.5146    0.0470 H   0  0  0  0  0  0  0  0  0  0  0  0
   -4.0483   -1.1209    0.6564 H   0  0  0  0  0  0  0  0  0  0  0  0
   -5.4066    0.7861   -0.4394 H   0  0  0  0  0  0  0  0  0  0  0  0
   -4.0326    2.1403   -2.2003 H   0  0  0  0  0  0  0  0  0  0  0  0
  1  2  3  0
  2  3  1  0
  3  4  1  0
  4  5  1  0
  5  6  1  0
  5  7  1  0
  7  8  1  0
  8  9  1  0
  9 10  2  0
  9 11  1  0
 11 12  1  0
 11 13  1  0
 13 14  1  0
 14 15  2  0
 15 16  1  0
 16 17  2  0
 17 18  1  0
  8  3  1  0
 18 14  1  0
  3 19  1  1
  4 20  1  0
  4 21  1  0
  5 22  1  1
  7 23  1  0
  7 24  1  0
 11 25  1  1
 12 26  1  0
 12 27  1  0
 13 28  1  0
 13 29  1  0
 15 30  1  0
 16 31  1  0
 17 32  1  0
M  END
$$$$
