
     RDKit          3D

 49 50  0  0  0  0  0  0  0  0999 V2000
   -0.1742   -2.9463    0.2105 C   0  0  0  0  0  0  0  0  0  0  0  0
   -0.3484   -1.5328    0.8148 C   0  0  0  0  0  0  0  0  0  0  0  0
    0.2650   -1.4983    2.2347 C   0  0  0  0  0  0  0  0  0  0  0  0
   -1.8672   -1.2334    0.9391 C   0  0  0  0  0  0  0  0  0  0  0  0
   -2.5213   -1.2545   -0.3752 N   0  0  0  0  0  0  0  0  0  0  0  0
   -4.2441   -1.1432   -0.1794 S   0  0  0  0  0  0  0  0  0  0  0  0
   -4.8941   -1.0992   -1.5336 O   0  0  0  0  0  0  0  0  0  0  0  0
   -4.7497   -2.3568    0.5506 O   0  0  0  0  0  0  0  0  0  0  0  0
   -4.6665    0.3187    0.7097 C   0  0  0  0  0  0  0  0  0  0  0  0
   -4.9984    0.2542    2.0713 C   0  0  0  0  0  0  0  0  0  0  0  0
   -5.3094    1.4227    2.7739 C   0  0  0  0  0  0  0  0  0  0  0  0
   -5.2863    2.6591    2.1220 C   0  0  0  0  0  0  0  0  0  0  0  0
   -4.9494    2.7287    0.7671 C   0  0  0  0  0  0  0  0  0  0  0  0
   -4.6376    1.5619    0.0621 C   0  0  0  0  0  0  0  0  0  0  0  0
    0.2611   -0.5026   -0.0655 N   0  0  0  0  0  0  0  0  0  0  0  0
    1.7267   -0.5721   -0.2007 C   0  0  0  0  0  0  0  0  0  0  0  0
    2.2007    0.3292   -1.3103 C   0  0  0  0  0  0  0  0  0  0  0  0
    1.3668    0.7949   -2.1350 O   0  0  0  0  0  0  0  0  0  0  0  0
    3.6010    0.6243   -1.4733 N   0  0  0  0  0  0  0  0  0  0  0  0
    4.6392    0.1571   -0.5675 C   0  0  0  0  0  0  0  0  0  0  0  0
    5.9559    0.6386   -1.1666 C   0  0  1  0  0  0  0  0  0  0  0  0
    6.5677   -0.3984   -1.8521 F   0  0  0  0  0  0  0  0  0  0  0  0
    5.5789    1.7492   -2.1454 C   0  0  0  0  0  0  0  0  0  0  0  0
    4.1203    1.4893   -2.5229 C   0  0  1  0  0  0  0  0  0  0  0  0
    4.0222    0.8121   -3.8265 C   0  0  0  0  0  0  0  0  0  0  0  0
    3.9445    0.2793   -4.8509 N   0  0  0  0  0  0  0  0  0  0  0  0
   -0.8255   -3.6800    0.7330 H   0  0  0  0  0  0  0  0  0  0  0  0
   -0.4414   -2.9441   -0.8678 H   0  0  0  0  0  0  0  0  0  0  0  0
    0.8681   -3.3124    0.3140 H   0  0  0  0  0  0  0  0  0  0  0  0
    0.2178   -0.4703    2.6537 H   0  0  0  0  0  0  0  0  0  0  0  0
    1.3249   -1.8289    2.2255 H   0  0  0  0  0  0  0  0  0  0  0  0
   -0.2872   -2.1808    2.9164 H   0  0  0  0  0  0  0  0  0  0  0  0
   -2.3363   -1.9930    1.6045 H   0  0  0  0  0  0  0  0  0  0  0  0
   -2.0119   -0.2373    1.4162 H   0  0  0  0  0  0  0  0  0  0  0  0
   -2.2275   -0.4016   -0.9045 H   0  0  0  0  0  0  0  0  0  0  0  0
   -5.0103   -0.6955    2.5904 H   0  0  0  0  0  0  0  0  0  0  0  0
   -5.5654    1.3701    3.8242 H   0  0  0  0  0  0  0  0  0  0  0  0
   -5.5262    3.5629    2.6671 H   0  0  0  0  0  0  0  0  0  0  0  0
   -4.9272    3.6867    0.2640 H   0  0  0  0  0  0  0  0  0  0  0  0
   -4.3702    1.6272   -0.9849 H   0  0  0  0  0  0  0  0  0  0  0  0
    0.0275    0.4470    0.3126 H   0  0  0  0  0  0  0  0  0  0  0  0
    2.2097   -0.2526    0.7472 H   0  0  0  0  0  0  0  0  0  0  0  0
    2.0586   -1.5986   -0.4509 H   0  0  0  0  0  0  0  0  0  0  0  0
    4.6192   -0.9516   -0.4897 H   0  0  0  0  0  0  0  0  0  0  0  0
    4.4886    0.6091    0.4367 H   0  0  0  0  0  0  0  0  0  0  0  0
    6.6457    1.0126   -0.3790 H   0  0  0  0  0  0  0  0  0  0  0  0
    5.6485    2.7284   -1.6220 H   0  0  0  0  0  0  0  0  0  0  0  0
    6.2632    1.7754   -3.0230 H   0  0  0  0  0  0  0  0  0  0  0  0
    3.5539    2.4455   -2.5550 H   0  0  0  0  0  0  0  0  0  0  0  0
  1  2  1  0
  2  3  1  0
  2  4  1  0
  4  5  1  0
  5  6  1  0
  6  7  2  0
  6  8  2  0
  6  9  1  0
  9 10  2  0
 10 11  1  0
 11 12  2  0
 12 13  1  0
 13 14  2  0
  2 15  1  0
 15 16  1  0
 16 17  1  0
 17 18  2  0
 17 19  1  0
 19 20  1  0
 20 21  1  0
 21 22  1  0
 21 23  1  0
 23 24  1  0
 24 25  1  0
 25 26  3  0
 14  9  1  0
 24 19  1  0
  1 27  1  0
  1 28  1  0
  1 29  1  0
  3 30  1  0
  3 31  1  0
  3 32  1  0
  4 33  1  0
  4 34  1  0
  5 35  1  0
 10 36  1  0
 11 37  1  0
 12 38  1  0
 13 39  1  0
 14 40  1  0
 15 41  1  0
 16 42  1  0
 16 43  1  0
 20 44  1  0
 20 45  1  0
 21 46  1  1
 23 47  1  0
 23 48  1  0
 24 49  1  6
M  END
$$$$
