
     RDKit          3D

 46 49  0  0  0  0  0  0  0  0999 V2000
    1.5653   -1.7309   -1.7424 N   0  0  0  0  0  0  0  0  0  0  0  0
    1.7448   -1.8501   -0.6056 C   0  0  0  0  0  0  0  0  0  0  0  0
    1.9813   -2.0020    0.8091 C   0  0  0  0  0  0  0  0  0  0  0  0
    2.9945   -2.8777    1.2244 C   0  0  0  0  0  0  0  0  0  0  0  0
    3.2617   -3.0556    2.5829 C   0  0  0  0  0  0  0  0  0  0  0  0
    2.5184   -2.3622    3.5383 C   0  0  0  0  0  0  0  0  0  0  0  0
    2.7780   -2.5394    4.8573 F   0  0  0  0  0  0  0  0  0  0  0  0
    1.5063   -1.4865    3.1378 C   0  0  0  0  0  0  0  0  0  0  0  0
    1.2287   -1.2875    1.7725 C   0  0  0  0  0  0  0  0  0  0  0  0
    0.1115   -0.3377    1.3801 C   0  0  0  0  0  0  0  0  0  0  0  0
    0.5707    0.7539    0.4899 N   0  0  0  0  0  0  0  0  0  0  0  0
   -0.1568    1.0832   -0.6489 C   0  0  0  0  0  0  0  0  0  0  0  0
   -1.4434    0.4969   -0.9071 N   0  0  0  0  0  0  0  0  0  0  0  0
   -1.6729   -0.1563   -2.2034 C   0  0  0  0  0  0  0  0  0  0  0  0
   -3.1030   -0.6971   -2.3192 C   0  0  0  0  0  0  0  0  0  0  0  0
   -3.5301   -1.3235   -0.9913 C   0  0  0  0  0  0  0  0  0  0  0  0
   -3.5799   -0.2754    0.1459 C   0  0  1  0  0  0  0  0  0  0  0  0
   -3.3293   -0.9283    1.4330 N   0  0  0  0  0  0  0  0  0  0  0  0
   -2.5847    0.8947   -0.0707 C   0  0  0  0  0  0  0  0  0  0  0  0
    0.3078    2.0313   -1.5186 N   0  0  0  0  0  0  0  0  0  0  0  0
    1.4604    2.6735   -1.2353 C   0  0  0  0  0  0  0  0  0  0  0  0
    2.0326    3.6389   -1.9693 N   0  0  0  0  0  0  0  0  0  0  0  0
    3.1250    4.0210   -1.2671 C   0  0  0  0  0  0  0  0  0  0  0  0
    3.2321    3.2925   -0.0839 C   0  0  0  0  0  0  0  0  0  0  0  0
    2.1497    2.4380   -0.0944 C   0  0  0  0  0  0  0  0  0  0  0  0
    1.7020    1.4826    0.8055 C   0  0  0  0  0  0  0  0  0  0  0  0
    2.3250    1.2998    1.8872 O   0  0  0  0  0  0  0  0  0  0  0  0
    3.5797   -3.4253    0.4951 H   0  0  0  0  0  0  0  0  0  0  0  0
    4.0457   -3.7339    2.8943 H   0  0  0  0  0  0  0  0  0  0  0  0
    0.9404   -0.9593    3.8959 H   0  0  0  0  0  0  0  0  0  0  0  0
   -0.3653    0.1138    2.2771 H   0  0  0  0  0  0  0  0  0  0  0  0
   -0.6596   -0.9651    0.8892 H   0  0  0  0  0  0  0  0  0  0  0  0
   -1.4815    0.5602   -3.0312 H   0  0  0  0  0  0  0  0  0  0  0  0
   -0.9659   -1.0059   -2.3074 H   0  0  0  0  0  0  0  0  0  0  0  0
   -3.1482   -1.4595   -3.1267 H   0  0  0  0  0  0  0  0  0  0  0  0
   -3.8001    0.1279   -2.5848 H   0  0  0  0  0  0  0  0  0  0  0  0
   -4.5319   -1.7908   -1.1087 H   0  0  0  0  0  0  0  0  0  0  0  0
   -2.8114   -2.1342   -0.7346 H   0  0  0  0  0  0  0  0  0  0  0  0
   -4.6062    0.1594    0.1662 H   0  0  0  0  0  0  0  0  0  0  0  0
   -4.0456   -1.6792    1.5666 H   0  0  0  0  0  0  0  0  0  0  0  0
   -3.5005   -0.2334    2.1960 H   0  0  0  0  0  0  0  0  0  0  0  0
   -2.2368    1.2990    0.9053 H   0  0  0  0  0  0  0  0  0  0  0  0
   -3.1139    1.7279   -0.5829 H   0  0  0  0  0  0  0  0  0  0  0  0
    1.7007    4.0243   -2.8811 H   0  0  0  0  0  0  0  0  0  0  0  0
    3.8088    4.7950   -1.5894 H   0  0  0  0  0  0  0  0  0  0  0  0
    3.9957    3.3832    0.6772 H   0  0  0  0  0  0  0  0  0  0  0  0
  1  2  3  0
  2  3  1  0
  3  4  2  0
  4  5  1  0
  5  6  2  0
  6  7  1  0
  6  8  1  0
  8  9  2  0
  9 10  1  0
 10 11  1  0
 11 12  1  0
 12 13  1  0
 13 14  1  0
 14 15  1  0
 15 16  1  0
 16 17  1  0
 17 18  1  0
 17 19  1  0
 12 20  2  0
 20 21  1  0
 21 22  1  0
 22 23  1  0
 23 24  2  0
 24 25  1  0
 25 26  1  0
 26 27  2  0
  9  3  1  0
 26 11  1  0
 19 13  1  0
 25 21  2  0
  4 28  1  0
  5 29  1  0
  8 30  1  0
 10 31  1  0
 10 32  1  0
 14 33  1  0
 14 34  1  0
 15 35  1  0
 15 36  1  0
 16 37  1  0
 16 38  1  0
 17 39  1  1
 18 40  1  0
 18 41  1  0
 19 42  1  0
 19 43  1  0
 22 44  1  0
 23 45  1  0
 24 46  1  0
M  END
$$$$
