
     RDKit          3D

 59 62  0  0  0  0  0  0  0  0999 V2000
   -2.1436    3.4975   -3.0491 C   0  0  0  0  0  0  0  0  0  0  0  0
   -2.3342    2.6818   -1.7962 C   0  0  0  0  0  0  0  0  0  0  0  0
   -3.5759    1.8373   -1.6430 C   0  0  0  0  0  0  0  0  0  0  0  0
   -1.3819    2.7408   -0.8397 C   0  0  0  0  0  0  0  0  0  0  0  0
   -1.4379    2.0031    0.4762 C   0  0  0  0  0  0  0  0  0  0  0  0
   -1.2446    0.5625    0.2885 N   0  0  0  0  0  0  0  0  0  0  0  0
   -2.1484   -0.4211    0.5277 C   0  0  0  0  0  0  0  0  0  0  0  0
   -3.4439   -0.1650    0.9870 O   0  0  0  0  0  0  0  0  0  0  0  0
   -4.4012   -1.1955    1.2217 C   0  0  1  0  0  0  0  0  0  0  0  0
   -4.0769   -1.9920    2.4660 C   0  0  0  0  0  0  0  0  0  0  0  0
   -5.4338   -2.3574    3.0524 C   0  0  0  0  0  0  0  0  0  0  0  0
   -6.4597   -1.5281    2.4108 N   0  0  0  0  0  0  0  0  0  0  0  0
   -5.7622   -0.6012    1.5212 C   0  0  0  0  0  0  0  0  0  0  0  0
   -1.6780   -1.6710    0.2767 N   0  0  0  0  0  0  0  0  0  0  0  0
   -0.4161   -1.4316   -0.1303 C   0  0  0  0  0  0  0  0  0  0  0  0
   -0.1467   -0.1038   -0.1181 C   0  0  0  0  0  0  0  0  0  0  0  0
    1.1222    0.3559   -0.4523 C   0  0  0  0  0  0  0  0  0  0  0  0
    1.3939    1.5863   -0.4009 O   0  0  0  0  0  0  0  0  0  0  0  0
    2.0760   -0.5672   -0.8198 N   0  0  0  0  0  0  0  0  0  0  0  0
    3.4407   -0.1143   -1.1615 C   0  0  0  0  0  0  0  0  0  0  0  0
    4.3215   -0.0397    0.0625 C   0  0  0  0  0  0  0  0  0  0  0  0
    3.8519   -0.3944    1.1792 O   0  0  0  0  0  0  0  0  0  0  0  0
    5.7296    0.4368   -0.0180 C   0  0  0  0  0  0  0  0  0  0  0  0
    6.5099    0.5282    1.1522 C   0  0  0  0  0  0  0  0  0  0  0  0
    7.8337    0.9741    1.0922 C   0  0  0  0  0  0  0  0  0  0  0  0
    8.3973    1.3339   -0.1328 C   0  0  0  0  0  0  0  0  0  0  0  0
    7.6384    1.2484   -1.3010 C   0  0  0  0  0  0  0  0  0  0  0  0
    6.3137    0.8034   -1.2483 C   0  0  0  0  0  0  0  0  0  0  0  0
    1.7769   -1.9205   -0.8095 C   0  0  0  0  0  0  0  0  0  0  0  0
    2.6750   -2.7637   -1.0912 O   0  0  0  0  0  0  0  0  0  0  0  0
    0.5126   -2.3606   -0.4836 N   0  0  0  0  0  0  0  0  0  0  0  0
    0.1959   -3.7943   -0.4344 C   0  0  0  0  0  0  0  0  0  0  0  0
   -2.9813    3.3573   -3.7634 H   0  0  0  0  0  0  0  0  0  0  0  0
   -1.2030    3.1926   -3.5552 H   0  0  0  0  0  0  0  0  0  0  0  0
   -2.0832    4.5757   -2.7895 H   0  0  0  0  0  0  0  0  0  0  0  0
   -4.0973    2.0823   -0.6944 H   0  0  0  0  0  0  0  0  0  0  0  0
   -4.2912    2.0147   -2.4726 H   0  0  0  0  0  0  0  0  0  0  0  0
   -3.3041    0.7629   -1.6598 H   0  0  0  0  0  0  0  0  0  0  0  0
   -0.5208    3.3841   -1.0025 H   0  0  0  0  0  0  0  0  0  0  0  0
   -2.4025    2.2105    0.9861 H   0  0  0  0  0  0  0  0  0  0  0  0
   -0.6379    2.3887    1.1434 H   0  0  0  0  0  0  0  0  0  0  0  0
   -4.4780   -1.8685    0.3375 H   0  0  0  0  0  0  0  0  0  0  0  0
   -3.5122   -1.3640    3.1908 H   0  0  0  0  0  0  0  0  0  0  0  0
   -3.4814   -2.8983    2.2210 H   0  0  0  0  0  0  0  0  0  0  0  0
   -5.4415   -2.1714    4.1478 H   0  0  0  0  0  0  0  0  0  0  0  0
   -5.6421   -3.4383    2.8819 H   0  0  0  0  0  0  0  0  0  0  0  0
   -7.0625   -2.1498    1.8209 H   0  0  0  0  0  0  0  0  0  0  0  0
   -6.3368   -0.4336    0.5827 H   0  0  0  0  0  0  0  0  0  0  0  0
   -5.6494    0.3746    2.0433 H   0  0  0  0  0  0  0  0  0  0  0  0
    3.4043    0.8840   -1.6493 H   0  0  0  0  0  0  0  0  0  0  0  0
    3.9026   -0.7999   -1.9046 H   0  0  0  0  0  0  0  0  0  0  0  0
    6.0984    0.2565    2.1162 H   0  0  0  0  0  0  0  0  0  0  0  0
    8.4230    1.0406    1.9977 H   0  0  0  0  0  0  0  0  0  0  0  0
    9.4223    1.6787   -0.1769 H   0  0  0  0  0  0  0  0  0  0  0  0
    8.0771    1.5271   -2.2505 H   0  0  0  0  0  0  0  0  0  0  0  0
    5.7571    0.7481   -2.1737 H   0  0  0  0  0  0  0  0  0  0  0  0
    0.7029   -4.3366   -1.2609 H   0  0  0  0  0  0  0  0  0  0  0  0
   -0.8946   -3.9714   -0.5520 H   0  0  0  0  0  0  0  0  0  0  0  0
    0.5280   -4.2152    0.5378 H   0  0  0  0  0  0  0  0  0  0  0  0
  1  2  1  0
  2  3  1  0
  2  4  2  3
  4  5  1  0
  5  6  1  0
  6  7  1  0
  7  8  1  0
  8  9  1  0
  9 10  1  0
 10 11  1  0
 11 12  1  0
 12 13  1  0
  7 14  2  0
 14 15  1  0
 15 16  2  0
 16 17  1  0
 17 18  2  0
 17 19  1  0
 19 20  1  0
 20 21  1  0
 21 22  2  0
 21 23  1  0
 23 24  2  0
 24 25  1  0
 25 26  2  0
 26 27  1  0
 27 28  2  0
 19 29  1  0
 29 30  2  0
 29 31  1  0
 31 32  1  0
 16  6  1  0
 28 23  1  0
 13  9  1  0
 31 15  1  0
  1 33  1  0
  1 34  1  0
  1 35  1  0
  3 36  1  0
  3 37  1  0
  3 38  1  0
  4 39  1  0
  5 40  1  0
  5 41  1  0
  9 42  1  6
 10 43  1  0
 10 44  1  0
 11 45  1  0
 11 46  1  0
 12 47  1  0
 13 48  1  0
 13 49  1  0
 20 50  1  0
 20 51  1  0
 24 52  1  0
 25 53  1  0
 26 54  1  0
 27 55  1  0
 28 56  1  0
 32 57  1  0
 32 58  1  0
 32 59  1  0
M  END
$$$$
