
     RDKit          3D

 45 47  0  0  0  0  0  0  0  0999 V2000
   -1.7542   -3.3701   -0.0073 N   0  0  0  0  0  0  0  0  0  0  0  0
   -1.4117   -2.3272    0.3589 C   0  0  0  0  0  0  0  0  0  0  0  0
   -0.9764   -1.0004    0.8226 C   0  0  2  0  0  0  0  0  0  0  0  0
   -1.8392   -0.5100    1.9865 C   0  0  0  0  0  0  0  0  0  0  0  0
   -2.7988    0.5305    1.3980 C   0  0  2  0  0  0  0  0  0  0  0  0
   -4.2006   -0.0208    1.1328 C   0  0  0  0  0  0  0  0  0  0  0  0
   -4.6447    0.6379   -0.1577 C   0  0  0  0  0  0  0  0  0  0  0  0
   -3.3748    0.8018   -0.9745 C   0  0  0  0  0  0  0  0  0  0  0  0
   -2.2293    0.9248    0.0387 C   0  0  2  0  0  0  0  0  0  0  0  0
   -1.1535   -0.0205   -0.2440 N   0  0  0  0  0  0  0  0  0  0  0  0
   -0.3243    0.0858   -1.4229 C   0  0  0  0  0  0  0  0  0  0  0  0
   -0.6121    0.9424   -2.3033 O   0  0  0  0  0  0  0  0  0  0  0  0
    0.8390   -0.8454   -1.6723 C   0  0  0  0  0  0  0  0  0  0  0  0
    2.0602   -0.1360   -2.3044 C   0  0  2  0  0  0  0  0  0  0  0  0
    3.1320   -1.1097   -2.5279 N   0  0  0  0  0  0  0  0  0  0  0  0
    2.5831    1.0522   -1.4571 C   0  0  0  0  0  0  0  0  0  0  0  0
    2.9067    0.6804   -0.0293 C   0  0  0  0  0  0  0  0  0  0  0  0
    4.0914   -0.0106    0.2769 C   0  0  0  0  0  0  0  0  0  0  0  0
    4.3751   -0.3728    1.5974 C   0  0  0  0  0  0  0  0  0  0  0  0
    3.4820   -0.0457    2.6213 C   0  0  0  0  0  0  0  0  0  0  0  0
    2.3063    0.6493    2.3273 C   0  0  0  0  0  0  0  0  0  0  0  0
    2.0198    1.0150    1.0089 C   0  0  0  0  0  0  0  0  0  0  0  0
    0.0807   -1.0484    1.1543 H   0  0  0  0  0  0  0  0  0  0  0  0
   -1.1824   -0.0032    2.7282 H   0  0  0  0  0  0  0  0  0  0  0  0
   -2.3690   -1.3311    2.5202 H   0  0  0  0  0  0  0  0  0  0  0  0
   -2.8689    1.4221    2.0616 H   0  0  0  0  0  0  0  0  0  0  0  0
   -4.1791   -1.1235    0.9821 H   0  0  0  0  0  0  0  0  0  0  0  0
   -4.8945    0.2196    1.9671 H   0  0  0  0  0  0  0  0  0  0  0  0
   -5.0793    1.6378    0.0642 H   0  0  0  0  0  0  0  0  0  0  0  0
   -5.3974    0.0190   -0.6926 H   0  0  0  0  0  0  0  0  0  0  0  0
   -3.2405   -0.0951   -1.6197 H   0  0  0  0  0  0  0  0  0  0  0  0
   -3.4352    1.7036   -1.6215 H   0  0  0  0  0  0  0  0  0  0  0  0
   -1.8284    1.9627    0.0700 H   0  0  0  0  0  0  0  0  0  0  0  0
    0.4864   -1.6427   -2.3612 H   0  0  0  0  0  0  0  0  0  0  0  0
    1.1671   -1.3492   -0.7432 H   0  0  0  0  0  0  0  0  0  0  0  0
    1.7495    0.2708   -3.2944 H   0  0  0  0  0  0  0  0  0  0  0  0
    3.9084   -0.6354   -3.0443 H   0  0  0  0  0  0  0  0  0  0  0  0
    2.7764   -1.8537   -3.1717 H   0  0  0  0  0  0  0  0  0  0  0  0
    3.4940    1.4726   -1.9365 H   0  0  0  0  0  0  0  0  0  0  0  0
    1.8333    1.8727   -1.4740 H   0  0  0  0  0  0  0  0  0  0  0  0
    4.7952   -0.2673   -0.5046 H   0  0  0  0  0  0  0  0  0  0  0  0
    5.2877   -0.9075    1.8269 H   0  0  0  0  0  0  0  0  0  0  0  0
    3.7022   -0.3288    3.6424 H   0  0  0  0  0  0  0  0  0  0  0  0
    1.6147    0.9025    3.1204 H   0  0  0  0  0  0  0  0  0  0  0  0
    1.1032    1.5516    0.7983 H   0  0  0  0  0  0  0  0  0  0  0  0
  1  2  3  0
  2  3  1  0
  3  4  1  0
  4  5  1  0
  5  6  1  0
  6  7  1  0
  7  8  1  0
  8  9  1  0
  9 10  1  0
 10 11  1  0
 11 12  2  0
 11 13  1  0
 13 14  1  0
 14 15  1  0
 14 16  1  0
 16 17  1  0
 17 18  2  0
 18 19  1  0
 19 20  2  0
 20 21  1  0
 21 22  2  0
 10  3  1  0
 22 17  1  0
  9  5  1  0
  3 23  1  1
  4 24  1  0
  4 25  1  0
  5 26  1  1
  6 27  1  0
  6 28  1  0
  7 29  1  0
  7 30  1  0
  8 31  1  0
  8 32  1  0
  9 33  1  1
 13 34  1  0
 13 35  1  0
 14 36  1  6
 15 37  1  0
 15 38  1  0
 16 39  1  0
 16 40  1  0
 18 41  1  0
 19 42  1  0
 20 43  1  0
 21 44  1  0
 22 45  1  0
M  END
$$$$
