
     RDKit          3D

 53 56  0  0  0  0  0  0  0  0999 V2000
    0.6878    0.0000    0.0000 Cl  0  0  0  0  0  0  0  0  0  0  0  0
    2.7823    1.4434    1.6807 O   0  0  0  0  0  0  0  0  0  0  0  0
    2.7453    0.3640    1.0287 C   0  0  0  0  0  0  0  0  0  0  0  0
    3.7414    0.1234   -0.0833 C   0  0  2  0  0  0  0  0  0  0  0  0
    5.0498    0.8890    0.0798 C   0  0  0  0  0  0  0  0  0  0  0  0
    5.5278    1.0605   -1.3402 C   0  0  0  0  0  0  0  0  0  0  0  0
    4.2507    1.0981   -2.1670 C   0  0  0  0  0  0  0  0  0  0  0  0
    3.1621    0.5340   -1.3631 N   0  0  0  0  0  0  0  0  0  0  0  0
    1.6936   -0.5851    1.2951 N   0  0  0  0  0  0  0  0  0  0  0  0
    1.7333   -1.9709    0.8567 C   0  0  0  0  0  0  0  0  0  0  0  0
    0.4665   -2.6249    1.3911 C   0  0  0  0  0  0  0  0  0  0  0  0
   -0.1534   -1.6349    2.3738 C   0  0  0  0  0  0  0  0  0  0  0  0
    0.5524   -0.2940    2.1512 C   0  0  0  0  0  0  0  0  0  0  0  0
   -0.5468    0.9369    1.3560 P   0  0  0  0  0  0  0  0  0  0  0  0
    0.0109    2.3249    1.5718 O   0  0  0  0  0  0  0  0  0  0  0  0
   -2.1062    0.8470    2.0533 O   0  0  0  0  0  0  0  0  0  0  0  0
   -3.2076    1.3674    1.3844 C   0  0  0  0  0  0  0  0  0  0  0  0
   -3.9473    2.3758    2.0141 C   0  0  0  0  0  0  0  0  0  0  0  0
   -5.0454    2.9523    1.3752 C   0  0  0  0  0  0  0  0  0  0  0  0
   -5.4195    2.5168    0.1048 C   0  0  0  0  0  0  0  0  0  0  0  0
   -4.7066    1.4924   -0.5221 C   0  0  0  0  0  0  0  0  0  0  0  0
   -3.5972    0.8946    0.1084 C   0  0  0  0  0  0  0  0  0  0  0  0
   -2.9412   -0.2691   -0.5538 C   0  0  0  0  0  0  0  0  0  0  0  0
   -3.7530   -1.3113   -1.0434 C   0  0  0  0  0  0  0  0  0  0  0  0
   -3.2076   -2.3423   -1.8113 C   0  0  0  0  0  0  0  0  0  0  0  0
   -1.8490   -2.3374   -2.1230 C   0  0  0  0  0  0  0  0  0  0  0  0
   -1.0278   -1.3177   -1.6422 C   0  0  0  0  0  0  0  0  0  0  0  0
   -1.5517   -0.3070   -0.8273 C   0  0  0  0  0  0  0  0  0  0  0  0
   -0.6736    0.6491   -0.3275 O   0  0  0  0  0  0  0  0  0  0  0  0
   -0.6878    0.0000    0.0000 H   0  0  0  0  0  0  0  0  0  0  0  0
    4.0013   -0.9593   -0.1210 H   0  0  0  0  0  0  0  0  0  0  0  0
    5.7843    0.3238    0.6941 H   0  0  0  0  0  0  0  0  0  0  0  0
    4.8901    1.8965    0.5228 H   0  0  0  0  0  0  0  0  0  0  0  0
    6.1247    1.9906   -1.4618 H   0  0  0  0  0  0  0  0  0  0  0  0
    6.1436    0.1827   -1.6372 H   0  0  0  0  0  0  0  0  0  0  0  0
    4.3856    0.5323   -3.1165 H   0  0  0  0  0  0  0  0  0  0  0  0
    3.9980    2.1507   -2.4178 H   0  0  0  0  0  0  0  0  0  0  0  0
    2.7779   -0.3105   -1.8494 H   0  0  0  0  0  0  0  0  0  0  0  0
    1.7602   -2.0271   -0.2520 H   0  0  0  0  0  0  0  0  0  0  0  0
    2.6307   -2.4711    1.2814 H   0  0  0  0  0  0  0  0  0  0  0  0
    0.6981   -3.5901    1.8921 H   0  0  0  0  0  0  0  0  0  0  0  0
   -0.2415   -2.8216    0.5586 H   0  0  0  0  0  0  0  0  0  0  0  0
   -1.2543   -1.5833    2.2317 H   0  0  0  0  0  0  0  0  0  0  0  0
    0.0410   -1.9829    3.4122 H   0  0  0  0  0  0  0  0  0  0  0  0
    0.8997    0.1085    3.1279 H   0  0  0  0  0  0  0  0  0  0  0  0
   -3.6570    2.7254    2.9968 H   0  0  0  0  0  0  0  0  0  0  0  0
   -5.6045    3.7397    1.8640 H   0  0  0  0  0  0  0  0  0  0  0  0
   -6.2702    2.9658   -0.3915 H   0  0  0  0  0  0  0  0  0  0  0  0
   -5.0255    1.1601   -1.5025 H   0  0  0  0  0  0  0  0  0  0  0  0
   -4.8176   -1.3175   -0.8428 H   0  0  0  0  0  0  0  0  0  0  0  0
   -3.8442   -3.1349   -2.1829 H   0  0  0  0  0  0  0  0  0  0  0  0
   -1.4304   -3.1270   -2.7336 H   0  0  0  0  0  0  0  0  0  0  0  0
    0.0278   -1.3259   -1.8808 H   0  0  0  0  0  0  0  0  0  0  0  0
  2  3  2  0
  3  4  1  0
  4  5  1  0
  5  6  1  0
  6  7  1  0
  7  8  1  0
  3  9  1  0
  9 10  1  0
 10 11  1  0
 11 12  1  0
 12 13  1  0
 13 14  1  0
 14 15  2  0
 14 16  1  0
 16 17  1  0
 17 18  2  0
 18 19  1  0
 19 20  2  0
 20 21  1  0
 21 22  2  0
 22 23  1  0
 23 24  2  0
 24 25  1  0
 25 26  2  0
 26 27  1  0
 27 28  2  0
 28 29  1  0
  8  4  1  0
 13  9  1  0
 29 14  1  0
 22 17  1  0
 28 23  1  0
  1 30  1  0
  4 31  1  6
  5 32  1  0
  5 33  1  0
  6 34  1  0
  6 35  1  0
  7 36  1  0
  7 37  1  0
  8 38  1  0
 10 39  1  0
 10 40  1  0
 11 41  1  0
 11 42  1  0
 12 43  1  0
 12 44  1  0
 13 45  1  0
 18 46  1  0
 19 47  1  0
 20 48  1  0
 21 49  1  0
 24 50  1  0
 25 51  1  0
 26 52  1  0
 27 53  1  0
M  END
$$$$
