
     RDKit          3D

 38 38  0  0  0  0  0  0  0  0999 V2000
   -1.7927    1.3932   -1.6410 C   0  0  0  0  0  0  0  0  0  0  0  0
   -0.7914    1.4779   -0.4774 C   0  0  2  0  0  0  0  0  0  0  0  0
    0.5455    1.0327   -0.8707 N   0  0  0  0  0  0  0  0  0  0  0  0
    1.2378    0.7350    0.3907 C   0  0  2  0  0  0  0  0  0  0  0  0
    2.2363   -0.3980    0.2135 C   0  0  0  0  0  0  0  0  0  0  0  0
    1.8457   -1.5873    0.3765 O   0  0  0  0  0  0  0  0  0  0  0  0
    3.5943   -0.1536   -0.2245 N   0  0  0  0  0  0  0  0  0  0  0  0
    4.0425    1.1975   -0.5811 C   0  0  0  0  0  0  0  0  0  0  0  0
    4.5346   -1.2768   -0.3385 C   0  0  0  0  0  0  0  0  0  0  0  0
    4.2443   -2.0570   -1.5465 C   0  0  0  0  0  0  0  0  0  0  0  0
    4.0146   -2.6721   -2.4993 N   0  0  0  0  0  0  0  0  0  0  0  0
    0.1700    0.4605    1.4690 C   0  0  0  0  0  0  0  0  0  0  0  0
   -1.1753    0.6857    0.7804 C   0  0  2  0  0  0  0  0  0  0  0  0
   -1.8618   -0.6386    0.4673 C   0  0  0  0  0  0  0  0  0  0  0  0
   -1.1810   -1.5596   -0.0647 O   0  0  0  0  0  0  0  0  0  0  0  0
   -3.2719   -0.8551    0.7082 N   0  0  0  0  0  0  0  0  0  0  0  0
   -4.1035    0.1612    1.3624 C   0  0  0  0  0  0  0  0  0  0  0  0
   -3.8728   -2.1249    0.2854 C   0  0  0  0  0  0  0  0  0  0  0  0
   -1.4619    2.0600   -2.4651 H   0  0  0  0  0  0  0  0  0  0  0  0
   -1.8680    0.3594   -2.0391 H   0  0  0  0  0  0  0  0  0  0  0  0
   -2.7964    1.7257   -1.3028 H   0  0  0  0  0  0  0  0  0  0  0  0
   -0.7199    2.5536   -0.1943 H   0  0  0  0  0  0  0  0  0  0  0  0
    0.4482    0.1495   -1.4274 H   0  0  0  0  0  0  0  0  0  0  0  0
    1.7834    1.6502    0.7039 H   0  0  0  0  0  0  0  0  0  0  0  0
    3.3494    1.6428   -1.3255 H   0  0  0  0  0  0  0  0  0  0  0  0
    4.0800    1.8346    0.3270 H   0  0  0  0  0  0  0  0  0  0  0  0
    5.0560    1.1842   -1.0349 H   0  0  0  0  0  0  0  0  0  0  0  0
    5.5845   -0.9185   -0.3918 H   0  0  0  0  0  0  0  0  0  0  0  0
    4.4572   -1.9319    0.5552 H   0  0  0  0  0  0  0  0  0  0  0  0
    0.2878    1.1958    2.2967 H   0  0  0  0  0  0  0  0  0  0  0  0
    0.2455   -0.5486    1.9303 H   0  0  0  0  0  0  0  0  0  0  0  0
   -1.8074    1.3198    1.4348 H   0  0  0  0  0  0  0  0  0  0  0  0
   -3.7237    0.3544    2.3877 H   0  0  0  0  0  0  0  0  0  0  0  0
   -4.0891    1.1004    0.7712 H   0  0  0  0  0  0  0  0  0  0  0  0
   -5.1609   -0.1648    1.4502 H   0  0  0  0  0  0  0  0  0  0  0  0
   -4.9565   -2.1711    0.5215 H   0  0  0  0  0  0  0  0  0  0  0  0
   -3.7530   -2.2479   -0.8119 H   0  0  0  0  0  0  0  0  0  0  0  0
   -3.3704   -2.9682    0.8048 H   0  0  0  0  0  0  0  0  0  0  0  0
  1  2  1  0
  2  3  1  0
  3  4  1  0
  4  5  1  0
  5  6  2  0
  5  7  1  0
  7  8  1  0
  7  9  1  0
  9 10  1  0
 10 11  3  0
  4 12  1  0
 12 13  1  0
 13 14  1  0
 14 15  2  0
 14 16  1  0
 16 17  1  0
 16 18  1  0
 13  2  1  0
  1 19  1  0
  1 20  1  0
  1 21  1  0
  2 22  1  1
  3 23  1  0
  4 24  1  1
  8 25  1  0
  8 26  1  0
  8 27  1  0
  9 28  1  0
  9 29  1  0
 12 30  1  0
 12 31  1  0
 13 32  1  1
 17 33  1  0
 17 34  1  0
 17 35  1  0
 18 36  1  0
 18 37  1  0
 18 38  1  0
M  END
$$$$
