
     RDKit          3D

 45 47  0  0  0  0  0  0  0  0999 V2000
    5.2656   -0.5594   -1.5154 C   0  0  0  0  0  0  0  0  0  0  0  0
    4.5989    0.4119   -0.5950 C   0  0  0  0  0  0  0  0  0  0  0  0
    5.3349    1.4121    0.0379 C   0  0  0  0  0  0  0  0  0  0  0  0
    4.6789    2.3037    0.8790 C   0  0  0  0  0  0  0  0  0  0  0  0
    3.3019    2.1816    1.0710 C   0  0  0  0  0  0  0  0  0  0  0  0
    2.7141    2.9969    1.8330 O   0  0  0  0  0  0  0  0  0  0  0  0
    2.6110    1.1825    0.4302 N   0  0  0  0  0  0  0  0  0  0  0  0
    1.1538    1.0166    0.5935 C   0  0  1  0  0  0  0  0  0  0  0  0
    0.4399    1.2475   -0.7454 C   0  0  0  0  0  0  0  0  0  0  0  0
   -1.0782    1.0434   -0.6142 C   0  0  0  0  0  0  0  0  0  0  0  0
   -1.4817   -0.3568   -0.0490 C   0  0  2  0  0  0  0  0  0  0  0  0
   -1.1446   -1.4702   -1.0892 C   0  0  0  0  0  0  0  0  0  0  0  0
   -1.6339   -2.7787   -0.6532 N   0  0  0  0  0  0  0  0  0  0  0  0
   -3.0140   -0.3677    0.1864 C   0  0  0  0  0  0  0  0  0  0  0  0
   -3.5986   -0.7551    1.4184 C   0  0  0  0  0  0  0  0  0  0  0  0
   -4.9865   -0.7735    1.5819 C   0  0  0  0  0  0  0  0  0  0  0  0
   -5.8246   -0.4247    0.5253 C   0  0  0  0  0  0  0  0  0  0  0  0
   -5.2778   -0.0644   -0.7055 C   0  0  0  0  0  0  0  0  0  0  0  0
   -6.3338    0.3521   -2.0433 Cl  0  0  0  0  0  0  0  0  0  0  0  0
   -3.8901   -0.0430   -0.8772 C   0  0  0  0  0  0  0  0  0  0  0  0
   -0.6848   -0.5813    1.2806 C   0  0  0  0  0  0  0  0  0  0  0  0
    0.8318   -0.3815    1.1413 C   0  0  0  0  0  0  0  0  0  0  0  0
    3.2594    0.3351   -0.3787 N   0  0  0  0  0  0  0  0  0  0  0  0
    4.5389   -1.3202   -1.8718 H   0  0  0  0  0  0  0  0  0  0  0  0
    6.0906   -1.0777   -0.9827 H   0  0  0  0  0  0  0  0  0  0  0  0
    5.6781   -0.0196   -2.3934 H   0  0  0  0  0  0  0  0  0  0  0  0
    6.4029    1.4999   -0.1195 H   0  0  0  0  0  0  0  0  0  0  0  0
    5.2377    3.0866    1.3772 H   0  0  0  0  0  0  0  0  0  0  0  0
    0.7509    1.7578    1.3195 H   0  0  0  0  0  0  0  0  0  0  0  0
    0.8467    0.5718   -1.5274 H   0  0  0  0  0  0  0  0  0  0  0  0
    0.6323    2.2900   -1.0806 H   0  0  0  0  0  0  0  0  0  0  0  0
   -1.4823    1.8381    0.0524 H   0  0  0  0  0  0  0  0  0  0  0  0
   -1.5185    1.2101   -1.6193 H   0  0  0  0  0  0  0  0  0  0  0  0
   -0.0555   -1.5344   -1.2914 H   0  0  0  0  0  0  0  0  0  0  0  0
   -1.6173   -1.2198   -2.0646 H   0  0  0  0  0  0  0  0  0  0  0  0
   -0.9312   -3.1937    0.0002 H   0  0  0  0  0  0  0  0  0  0  0  0
   -1.6555   -3.4080   -1.4882 H   0  0  0  0  0  0  0  0  0  0  0  0
   -3.0046   -1.0535    2.2684 H   0  0  0  0  0  0  0  0  0  0  0  0
   -5.4137   -1.0657    2.5327 H   0  0  0  0  0  0  0  0  0  0  0  0
   -6.8984   -0.4442    0.6613 H   0  0  0  0  0  0  0  0  0  0  0  0
   -3.5044    0.2176   -1.8527 H   0  0  0  0  0  0  0  0  0  0  0  0
   -1.0411    0.1423    2.0478 H   0  0  0  0  0  0  0  0  0  0  0  0
   -0.8616   -1.6016    1.6814 H   0  0  0  0  0  0  0  0  0  0  0  0
    1.2993   -0.4903    2.1442 H   0  0  0  0  0  0  0  0  0  0  0  0
    1.2652   -1.1720    0.4940 H   0  0  0  0  0  0  0  0  0  0  0  0
  1  2  1  0
  2  3  1  0
  3  4  2  0
  4  5  1  0
  5  6  2  0
  5  7  1  0
  7  8  1  0
  8  9  1  0
  9 10  1  0
 10 11  1  0
 11 12  1  6
 12 13  1  0
 11 14  1  0
 14 15  2  0
 15 16  1  0
 16 17  2  0
 17 18  1  0
 18 19  1  0
 18 20  2  0
 11 21  1  0
 21 22  1  0
  7 23  1  0
 23  2  2  0
 22  8  1  0
 20 14  1  0
  1 24  1  0
  1 25  1  0
  1 26  1  0
  3 27  1  0
  4 28  1  0
  8 29  1  1
  9 30  1  0
  9 31  1  0
 10 32  1  0
 10 33  1  0
 12 34  1  0
 12 35  1  0
 13 36  1  0
 13 37  1  0
 15 38  1  0
 16 39  1  0
 17 40  1  0
 20 41  1  0
 21 42  1  0
 21 43  1  0
 22 44  1  0
 22 45  1  0
M  END
$$$$
