
     RDKit          3D

 59 60  0  0  0  0  0  0  0  0999 V2000
    6.5308   -1.7745    4.3763 C   0  0  0  0  0  0  0  0  0  0  0  0
    5.5983   -0.9172    3.7289 O   0  0  0  0  0  0  0  0  0  0  0  0
    5.9594   -0.0608    2.6829 C   0  0  0  0  0  0  0  0  0  0  0  0
    7.1547   -0.0278    2.2784 O   0  0  0  0  0  0  0  0  0  0  0  0
    4.9379    0.8049    2.0530 C   0  0  0  0  0  0  0  0  0  0  0  0
    5.2811    1.6706    0.9989 C   0  0  0  0  0  0  0  0  0  0  0  0
    4.3117    2.4846    0.4062 C   0  0  0  0  0  0  0  0  0  0  0  0
    2.9846    2.4510    0.8581 C   0  0  0  0  0  0  0  0  0  0  0  0
    1.9419    3.3085    0.1937 C   0  0  0  0  0  0  0  0  0  0  0  0
    1.6674    2.8155   -1.1538 N   0  0  0  0  0  0  0  0  0  0  0  0
    0.9556    1.5942   -1.3952 C   0  0  0  0  0  0  0  0  0  0  0  0
    0.4945    0.9263   -0.4290 O   0  0  0  0  0  0  0  0  0  0  0  0
    0.8127    1.0739   -2.8012 C   0  0  0  0  0  0  0  0  0  0  0  0
    1.8807    0.0092   -3.1178 C   0  0  0  0  0  0  0  0  0  0  0  0
    1.0545   -1.2038   -3.3985 C   0  0  0  0  0  0  0  0  0  0  0  0
   -0.2098   -0.9813   -3.3123 N   0  0  0  0  0  0  0  0  0  0  0  0
   -0.4408    0.3493   -2.9671 N   0  0  0  0  0  0  0  0  0  0  0  0
   -1.7520    0.9264   -2.8736 C   0  0  0  0  0  0  0  0  0  0  0  0
   -1.8788    2.1670   -2.6884 O   0  0  0  0  0  0  0  0  0  0  0  0
   -2.9822    0.0649   -2.9309 C   0  0  0  0  0  0  0  0  0  0  0  0
   -3.4030   -0.3952   -1.5239 C   0  0  2  0  0  0  0  0  0  0  0  0
   -2.3362   -1.2056   -0.9253 N   0  0  0  0  0  0  0  0  0  0  0  0
   -4.7356   -1.1756   -1.5927 C   0  0  0  0  0  0  0  0  0  0  0  0
   -5.2582   -1.5202   -0.2197 C   0  0  0  0  0  0  0  0  0  0  0  0
   -5.0418   -2.8016    0.3159 C   0  0  0  0  0  0  0  0  0  0  0  0
   -5.5011   -3.1184    1.5981 C   0  0  0  0  0  0  0  0  0  0  0  0
   -5.2878   -4.3579    2.1050 F   0  0  0  0  0  0  0  0  0  0  0  0
   -6.1760   -2.1577    2.3571 C   0  0  0  0  0  0  0  0  0  0  0  0
   -6.6211   -2.4633    3.6011 F   0  0  0  0  0  0  0  0  0  0  0  0
   -6.3899   -0.8790    1.8352 C   0  0  0  0  0  0  0  0  0  0  0  0
   -5.9322   -0.5564    0.5535 C   0  0  0  0  0  0  0  0  0  0  0  0
   -6.1451    0.6931    0.0680 F   0  0  0  0  0  0  0  0  0  0  0  0
    2.6373    1.5858    1.9063 C   0  0  0  0  0  0  0  0  0  0  0  0
    3.6057    0.7710    2.5000 C   0  0  0  0  0  0  0  0  0  0  0  0
    0.6878    0.0000    0.0000 Cl  0  0  0  0  0  0  0  0  0  0  0  0
    6.9676   -2.4844    3.6423 H   0  0  0  0  0  0  0  0  0  0  0  0
    7.3388   -1.1732    4.8441 H   0  0  0  0  0  0  0  0  0  0  0  0
    6.0079   -2.3510    5.1667 H   0  0  0  0  0  0  0  0  0  0  0  0
    6.2980    1.7177    0.6297 H   0  0  0  0  0  0  0  0  0  0  0  0
    4.5942    3.1396   -0.4090 H   0  0  0  0  0  0  0  0  0  0  0  0
    0.9992    3.3361    0.7826 H   0  0  0  0  0  0  0  0  0  0  0  0
    2.3198    4.3522    0.1333 H   0  0  0  0  0  0  0  0  0  0  0  0
    2.0203    3.3683   -1.9673 H   0  0  0  0  0  0  0  0  0  0  0  0
    0.8626    1.9065   -3.5370 H   0  0  0  0  0  0  0  0  0  0  0  0
    2.4631    0.2873   -4.0220 H   0  0  0  0  0  0  0  0  0  0  0  0
    2.5682   -0.1881   -2.2661 H   0  0  0  0  0  0  0  0  0  0  0  0
    1.4575   -2.1729   -3.6599 H   0  0  0  0  0  0  0  0  0  0  0  0
   -2.8035   -0.8156   -3.5849 H   0  0  0  0  0  0  0  0  0  0  0  0
   -3.8051    0.6545   -3.3915 H   0  0  0  0  0  0  0  0  0  0  0  0
   -3.5567    0.5137   -0.8986 H   0  0  0  0  0  0  0  0  0  0  0  0
   -2.3123   -2.1478   -1.3796 H   0  0  0  0  0  0  0  0  0  0  0  0
   -2.5386   -1.3437    0.0911 H   0  0  0  0  0  0  0  0  0  0  0  0
   -4.6016   -2.0996   -2.1977 H   0  0  0  0  0  0  0  0  0  0  0  0
   -5.4989   -0.5627   -2.1205 H   0  0  0  0  0  0  0  0  0  0  0  0
   -4.5133   -3.5528   -0.2580 H   0  0  0  0  0  0  0  0  0  0  0  0
   -6.9097   -0.1353    2.4258 H   0  0  0  0  0  0  0  0  0  0  0  0
    1.6159    1.5380    2.2630 H   0  0  0  0  0  0  0  0  0  0  0  0
    3.3090    0.1133    3.3073 H   0  0  0  0  0  0  0  0  0  0  0  0
   -0.6878    0.0000    0.0000 H   0  0  0  0  0  0  0  0  0  0  0  0
  1  2  1  0
  2  3  1  0
  3  4  2  0
  3  5  1  0
  5  6  2  0
  6  7  1  0
  7  8  2  0
  8  9  1  0
  9 10  1  0
 10 11  1  0
 11 12  2  0
 11 13  1  0
 13 14  1  0
 14 15  1  0
 15 16  2  0
 16 17  1  0
 17 18  1  0
 18 19  2  0
 18 20  1  0
 20 21  1  0
 21 22  1  0
 21 23  1  0
 23 24  1  0
 24 25  2  0
 25 26  1  0
 26 27  1  0
 26 28  2  0
 28 29  1  0
 28 30  1  0
 30 31  2  0
 31 32  1  0
  8 33  1  0
 33 34  2  0
 34  5  1  0
 17 13  1  0
 31 24  1  0
  1 36  1  0
  1 37  1  0
  1 38  1  0
  6 39  1  0
  7 40  1  0
  9 41  1  0
  9 42  1  0
 10 43  1  0
 13 44  1  0
 14 45  1  0
 14 46  1  0
 15 47  1  0
 20 48  1  0
 20 49  1  0
 21 50  1  1
 22 51  1  0
 22 52  1  0
 23 53  1  0
 23 54  1  0
 25 55  1  0
 30 56  1  0
 33 57  1  0
 34 58  1  0
 35 59  1  0
M  END
$$$$
