
     RDKit          3D

 71 71  0  0  0  0  0  0  0  0999 V2000
    3.7512    2.4832   -2.8139 C   0  0  0  0  0  0  0  0  0  0  0  0
    4.0334    1.3631   -1.9846 O   0  0  0  0  0  0  0  0  0  0  0  0
    3.8213    1.3760   -0.6034 C   0  0  0  0  0  0  0  0  0  0  0  0
    3.3575    2.4028   -0.0347 O   0  0  0  0  0  0  0  0  0  0  0  0
    4.2094    0.1719    0.2092 C   0  0  1  0  0  0  0  0  0  0  0  0
    5.5280    0.4162    0.9439 C   0  0  0  0  0  0  0  0  0  0  0  0
    5.1370    0.8067    2.3662 C   0  0  0  0  0  0  0  0  0  0  0  0
    3.7494    0.2181    2.5861 C   0  0  0  0  0  0  0  0  0  0  0  0
    3.2309   -0.0807    1.2605 N   0  0  0  0  0  0  0  0  0  0  0  0
    1.9508   -0.7094    1.0600 C   0  0  0  0  0  0  0  0  0  0  0  0
    1.2415   -0.9959    2.0642 O   0  0  0  0  0  0  0  0  0  0  0  0
    1.4707   -1.0753   -0.3235 C   0  0  0  0  0  0  0  0  0  0  0  0
   -0.0114   -1.4292   -0.3456 C   0  0  0  0  0  0  0  0  0  0  0  0
   -0.4329   -2.7629   -0.1590 C   0  0  0  0  0  0  0  0  0  0  0  0
    0.5353   -3.8929    0.0457 C   0  0  0  0  0  0  0  0  0  0  0  0
   -1.7544   -3.0587   -0.1794 N   0  0  0  0  0  0  0  0  0  0  0  0
   -2.7313   -2.1327   -0.3496 C   0  0  0  0  0  0  0  0  0  0  0  0
   -4.1561   -2.6427   -0.3382 C   0  0  0  0  0  0  0  0  0  0  0  0
   -4.8517   -2.4518    1.0272 C   0  0  0  0  0  0  0  0  0  0  0  0
   -4.1571   -3.2576    2.1352 C   0  0  0  0  0  0  0  0  0  0  0  0
   -6.3267   -2.8590    0.9280 C   0  0  0  0  0  0  0  0  0  0  0  0
   -2.3788   -0.7660   -0.5066 C   0  0  0  0  0  0  0  0  0  0  0  0
   -3.4392    0.3213   -0.6189 C   0  0  0  0  0  0  0  0  0  0  0  0
   -3.7503    0.8650    0.6996 N   0  0  0  0  0  0  0  0  0  0  0  0
   -0.9991   -0.4211   -0.4937 C   0  0  0  0  0  0  0  0  0  0  0  0
   -0.5802    0.9927   -0.6445 C   0  0  0  0  0  0  0  0  0  0  0  0
   -0.2310    1.7520    0.4815 C   0  0  0  0  0  0  0  0  0  0  0  0
    0.1983    3.0734    0.3332 C   0  0  0  0  0  0  0  0  0  0  0  0
    0.2728    3.6539   -0.9422 C   0  0  0  0  0  0  0  0  0  0  0  0
    0.7910    5.0513   -1.1066 C   0  0  0  0  0  0  0  0  0  0  0  0
   -0.0643    2.8885   -2.0690 C   0  0  0  0  0  0  0  0  0  0  0  0
   -0.4861    1.5647   -1.9213 C   0  0  0  0  0  0  0  0  0  0  0  0
    0.6878    0.0000    0.0000 Cl  0  0  0  0  0  0  0  0  0  0  0  0
    0.6878    0.0000    0.0000 Cl  0  0  0  0  0  0  0  0  0  0  0  0
    2.6719    2.7311   -2.7634 H   0  0  0  0  0  0  0  0  0  0  0  0
    4.3522    3.3587   -2.4887 H   0  0  0  0  0  0  0  0  0  0  0  0
    4.0135    2.2356   -3.8628 H   0  0  0  0  0  0  0  0  0  0  0  0
    4.3078   -0.7185   -0.4499 H   0  0  0  0  0  0  0  0  0  0  0  0
    6.1095   -0.5317    0.9762 H   0  0  0  0  0  0  0  0  0  0  0  0
    6.1577    1.1992    0.4655 H   0  0  0  0  0  0  0  0  0  0  0  0
    5.8670    0.4175    3.1087 H   0  0  0  0  0  0  0  0  0  0  0  0
    5.0892    1.9151    2.4453 H   0  0  0  0  0  0  0  0  0  0  0  0
    3.8188   -0.7190    3.1805 H   0  0  0  0  0  0  0  0  0  0  0  0
    3.0891    0.9474    3.1037 H   0  0  0  0  0  0  0  0  0  0  0  0
    1.6662   -0.2374   -1.0217 H   0  0  0  0  0  0  0  0  0  0  0  0
    2.0868   -1.9143   -0.7049 H   0  0  0  0  0  0  0  0  0  0  0  0
    1.2418   -3.6533    0.8677 H   0  0  0  0  0  0  0  0  0  0  0  0
   -0.0057   -4.8234    0.3207 H   0  0  0  0  0  0  0  0  0  0  0  0
    1.0979   -4.0820   -0.8923 H   0  0  0  0  0  0  0  0  0  0  0  0
   -4.7436   -2.1725   -1.1521 H   0  0  0  0  0  0  0  0  0  0  0  0
   -4.1500   -3.7280   -0.5854 H   0  0  0  0  0  0  0  0  0  0  0  0
   -4.8225   -1.3808    1.3109 H   0  0  0  0  0  0  0  0  0  0  0  0
   -4.1299   -4.3380    1.8770 H   0  0  0  0  0  0  0  0  0  0  0  0
   -3.1183   -2.8957    2.2852 H   0  0  0  0  0  0  0  0  0  0  0  0
   -4.6983   -3.1331    3.0975 H   0  0  0  0  0  0  0  0  0  0  0  0
   -6.8384   -2.6913    1.8998 H   0  0  0  0  0  0  0  0  0  0  0  0
   -6.4200   -3.9320    0.6536 H   0  0  0  0  0  0  0  0  0  0  0  0
   -6.8427   -2.2453    0.1590 H   0  0  0  0  0  0  0  0  0  0  0  0
   -4.3684   -0.0572   -1.0846 H   0  0  0  0  0  0  0  0  0  0  0  0
   -3.1065    1.1391   -1.2923 H   0  0  0  0  0  0  0  0  0  0  0  0
   -2.9405    1.4393    1.0242 H   0  0  0  0  0  0  0  0  0  0  0  0
   -4.5544    1.5247    0.5920 H   0  0  0  0  0  0  0  0  0  0  0  0
   -0.2876    1.3187    1.4721 H   0  0  0  0  0  0  0  0  0  0  0  0
    0.4787    3.6413    1.2116 H   0  0  0  0  0  0  0  0  0  0  0  0
    0.5386    5.6698   -0.2192 H   0  0  0  0  0  0  0  0  0  0  0  0
    1.8943    5.0228   -1.2268 H   0  0  0  0  0  0  0  0  0  0  0  0
    0.3413    5.5332   -2.0008 H   0  0  0  0  0  0  0  0  0  0  0  0
    0.0119    3.3126   -3.0626 H   0  0  0  0  0  0  0  0  0  0  0  0
   -0.7352    0.9826   -2.8000 H   0  0  0  0  0  0  0  0  0  0  0  0
   -0.6878    0.0000    0.0000 H   0  0  0  0  0  0  0  0  0  0  0  0
   -0.6878    0.0000    0.0000 H   0  0  0  0  0  0  0  0  0  0  0  0
  1  2  1  0
  2  3  1  0
  3  4  2  0
  3  5  1  0
  5  6  1  0
  6  7  1  0
  7  8  1  0
  8  9  1  0
  9 10  1  0
 10 11  2  0
 10 12  1  0
 12 13  1  0
 13 14  2  0
 14 15  1  0
 14 16  1  0
 16 17  2  0
 17 18  1  0
 18 19  1  0
 19 20  1  0
 19 21  1  0
 17 22  1  0
 22 23  1  0
 23 24  1  0
 22 25  2  0
 25 26  1  0
 26 27  2  0
 27 28  1  0
 28 29  2  0
 29 30  1  0
 29 31  1  0
 31 32  2  0
  9  5  1  0
 25 13  1  0
 32 26  1  0
  1 35  1  0
  1 36  1  0
  1 37  1  0
  5 38  1  6
  6 39  1  0
  6 40  1  0
  7 41  1  0
  7 42  1  0
  8 43  1  0
  8 44  1  0
 12 45  1  0
 12 46  1  0
 15 47  1  0
 15 48  1  0
 15 49  1  0
 18 50  1  0
 18 51  1  0
 19 52  1  0
 20 53  1  0
 20 54  1  0
 20 55  1  0
 21 56  1  0
 21 57  1  0
 21 58  1  0
 23 59  1  0
 23 60  1  0
 24 61  1  0
 24 62  1  0
 27 63  1  0
 28 64  1  0
 30 65  1  0
 30 66  1  0
 30 67  1  0
 31 68  1  0
 32 69  1  0
 33 70  1  0
 34 71  1  0
M  END
$$$$
