
     RDKit          3D

 62 65  0  0  0  0  0  0  0  0999 V2000
   -3.1682    3.3976   -0.9918 C   0  0  0  0  0  0  0  0  0  0  0  0
   -2.5663    3.0423    0.3428 C   0  0  0  0  0  0  0  0  0  0  0  0
   -2.6738    3.9625    1.4007 C   0  0  0  0  0  0  0  0  0  0  0  0
   -2.1473    3.6657    2.6578 C   0  0  0  0  0  0  0  0  0  0  0  0
   -1.5101    2.4465    2.8778 C   0  0  0  0  0  0  0  0  0  0  0  0
   -1.0131    2.1544    4.1050 F   0  0  0  0  0  0  0  0  0  0  0  0
   -1.3837    1.5253    1.8373 C   0  0  0  0  0  0  0  0  0  0  0  0
   -1.8787    1.8168    0.5500 C   0  0  0  0  0  0  0  0  0  0  0  0
   -1.7491    0.7867   -0.5587 C   0  0  0  0  0  0  0  0  0  0  0  0
   -0.5139    0.0024   -0.4396 N   0  0  0  0  0  0  0  0  0  0  0  0
   -0.3979   -1.3085   -0.1066 C   0  0  0  0  0  0  0  0  0  0  0  0
   -1.5156   -2.1581    0.1667 N   0  0  0  0  0  0  0  0  0  0  0  0
   -2.0943   -2.1663    1.5133 C   0  0  0  0  0  0  0  0  0  0  0  0
   -2.6019   -3.5660    1.8955 C   0  0  0  0  0  0  0  0  0  0  0  0
   -3.2323   -4.3578    0.7274 C   0  0  0  0  0  0  0  0  0  0  0  0
   -3.4869   -3.5111   -0.5315 C   0  0  1  0  0  0  0  0  0  0  0  0
   -4.5397   -2.5221   -0.2851 N   0  0  0  0  0  0  0  0  0  0  0  0
   -2.1810   -2.8202   -0.9614 C   0  0  0  0  0  0  0  0  0  0  0  0
    0.8812   -1.7534   -0.0641 N   0  0  0  0  0  0  0  0  0  0  0  0
    1.5885   -0.6527   -0.3893 C   0  0  0  0  0  0  0  0  0  0  0  0
    2.9692   -0.5309   -0.4959 C   0  0  0  0  0  0  0  0  0  0  0  0
    3.8199   -1.6176   -0.2578 C   0  0  0  0  0  0  0  0  0  0  0  0
    5.1998   -1.4646   -0.3712 C   0  0  0  0  0  0  0  0  0  0  0  0
    5.7544   -0.2247   -0.7241 C   0  0  0  0  0  0  0  0  0  0  0  0
    7.2226   -0.0685   -0.8432 C   0  0  0  0  0  0  0  0  0  0  0  0
    7.9885   -1.0470   -0.6290 O   0  0  0  0  0  0  0  0  0  0  0  0
    7.7732    1.1619   -1.1933 O   0  0  0  0  0  0  0  0  0  0  0  0
    4.9024    0.8690   -0.9640 C   0  0  0  0  0  0  0  0  0  0  0  0
    3.4955    0.7433   -0.8560 C   0  0  0  0  0  0  0  0  0  0  0  0
    2.6359    1.8151   -1.0903 N   0  0  0  0  0  0  0  0  0  0  0  0
    3.1780    3.1371   -1.4631 C   0  0  0  0  0  0  0  0  0  0  0  0
    1.2675    1.6518   -0.9768 C   0  0  0  0  0  0  0  0  0  0  0  0
    0.4767    2.6100   -1.1940 O   0  0  0  0  0  0  0  0  0  0  0  0
    0.7618    0.4006   -0.6185 C   0  0  0  0  0  0  0  0  0  0  0  0
    0.6878    0.0000    0.0000 Cl  0  0  0  0  0  0  0  0  0  0  0  0
   -3.8067    2.5656   -1.3564 H   0  0  0  0  0  0  0  0  0  0  0  0
   -3.8068    4.3041   -0.9247 H   0  0  0  0  0  0  0  0  0  0  0  0
   -2.3594    3.5968   -1.7256 H   0  0  0  0  0  0  0  0  0  0  0  0
   -3.1745    4.9120    1.2562 H   0  0  0  0  0  0  0  0  0  0  0  0
   -2.2419    4.3807    3.4650 H   0  0  0  0  0  0  0  0  0  0  0  0
   -0.8886    0.5860    2.0410 H   0  0  0  0  0  0  0  0  0  0  0  0
   -1.7533    1.2637   -1.5597 H   0  0  0  0  0  0  0  0  0  0  0  0
   -2.6366    0.1215   -0.5185 H   0  0  0  0  0  0  0  0  0  0  0  0
   -2.9320   -1.4374    1.5535 H   0  0  0  0  0  0  0  0  0  0  0  0
   -1.3374   -1.8454    2.2625 H   0  0  0  0  0  0  0  0  0  0  0  0
   -3.3469   -3.4587    2.7137 H   0  0  0  0  0  0  0  0  0  0  0  0
   -1.7521   -4.1540    2.3067 H   0  0  0  0  0  0  0  0  0  0  0  0
   -4.1833   -4.8260    1.0632 H   0  0  0  0  0  0  0  0  0  0  0  0
   -2.5496   -5.1921    0.4517 H   0  0  0  0  0  0  0  0  0  0  0  0
   -3.8150   -4.1877   -1.3534 H   0  0  0  0  0  0  0  0  0  0  0  0
   -5.4227   -3.0320   -0.0519 H   0  0  0  0  0  0  0  0  0  0  0  0
   -4.7301   -2.0127   -1.1787 H   0  0  0  0  0  0  0  0  0  0  0  0
   -2.3930   -2.0812   -1.7647 H   0  0  0  0  0  0  0  0  0  0  0  0
   -1.4908   -3.5833   -1.3827 H   0  0  0  0  0  0  0  0  0  0  0  0
    3.4193   -2.5861    0.0163 H   0  0  0  0  0  0  0  0  0  0  0  0
    5.8347   -2.3211   -0.1816 H   0  0  0  0  0  0  0  0  0  0  0  0
    8.7760    1.2784   -1.2771 H   0  0  0  0  0  0  0  0  0  0  0  0
    5.3513    1.8133   -1.2348 H   0  0  0  0  0  0  0  0  0  0  0  0
    3.7445    3.0582   -2.4154 H   0  0  0  0  0  0  0  0  0  0  0  0
    3.8428    3.5139   -0.6568 H   0  0  0  0  0  0  0  0  0  0  0  0
    2.3909    3.9037   -1.6167 H   0  0  0  0  0  0  0  0  0  0  0  0
   -0.6878    0.0000    0.0000 H   0  0  0  0  0  0  0  0  0  0  0  0
  1  2  1  0
  2  3  2  0
  3  4  1  0
  4  5  2  0
  5  6  1  0
  5  7  1  0
  7  8  2  0
  8  9  1  0
  9 10  1  0
 10 11  1  0
 11 12  1  0
 12 13  1  0
 13 14  1  0
 14 15  1  0
 15 16  1  0
 16 17  1  0
 16 18  1  0
 11 19  2  0
 19 20  1  0
 20 21  1  0
 21 22  2  0
 22 23  1  0
 23 24  2  0
 24 25  1  0
 25 26  2  0
 25 27  1  0
 24 28  1  0
 28 29  2  0
 29 30  1  0
 30 31  1  0
 30 32  1  0
 32 33  2  0
 32 34  1  0
  8  2  1  0
 34 10  1  0
 18 12  1  0
 34 20  2  0
 29 21  1  0
  1 36  1  0
  1 37  1  0
  1 38  1  0
  3 39  1  0
  4 40  1  0
  7 41  1  0
  9 42  1  0
  9 43  1  0
 13 44  1  0
 13 45  1  0
 14 46  1  0
 14 47  1  0
 15 48  1  0
 15 49  1  0
 16 50  1  6
 17 51  1  0
 17 52  1  0
 18 53  1  0
 18 54  1  0
 22 55  1  0
 23 56  1  0
 27 57  1  0
 28 58  1  0
 31 59  1  0
 31 60  1  0
 31 61  1  0
 35 62  1  0
M  END
$$$$
