
     RDKit          3D

 54 58  0  0  0  0  0  0  0  0999 V2000
   -2.8163    1.9980    0.7885 N   0  0  0  0  0  0  0  0  0  0  0  0
   -3.3933    1.0147   -0.1325 C   0  0  1  0  0  0  0  0  0  0  0  0
   -2.3550    0.6157   -1.1949 C   0  0  0  0  0  0  0  0  0  0  0  0
   -1.1717   -0.1797   -0.5793 C   0  0  1  0  0  0  0  0  0  0  0  0
   -0.1067    0.7288   -0.0771 N   0  0  0  0  0  0  0  0  0  0  0  0
    0.4995    1.5679   -1.1480 C   0  0  0  0  0  0  0  0  0  0  0  0
    1.9400    1.5951   -0.8357 C   0  0  0  0  0  0  0  0  0  0  0  0
    3.0451    1.6334   -1.6639 C   0  0  0  0  0  0  0  0  0  0  0  0
    3.9780    0.7890   -1.1681 N   0  0  0  0  0  0  0  0  0  0  0  0
    3.4686    0.2291   -0.0793 N   0  0  0  0  0  0  0  0  0  0  0  0
    4.1840   -1.1238    0.7275 S   0  0  0  0  0  0  0  0  0  0  0  0
    3.7335   -2.3985    0.0707 O   0  0  0  0  0  0  0  0  0  0  0  0
    3.7550   -1.1400    2.1682 O   0  0  0  0  0  0  0  0  0  0  0  0
    5.9373   -0.9876    0.6508 C   0  0  0  0  0  0  0  0  0  0  0  0
    6.6563   -1.6486   -0.3560 C   0  0  0  0  0  0  0  0  0  0  0  0
    8.0476   -1.5227   -0.4230 C   0  0  0  0  0  0  0  0  0  0  0  0
    8.7252   -0.7330    0.5105 C   0  0  0  0  0  0  0  0  0  0  0  0
    8.0118   -0.0657    1.5104 C   0  0  0  0  0  0  0  0  0  0  0  0
    6.6205   -0.1897    1.5798 C   0  0  0  0  0  0  0  0  0  0  0  0
    2.2338    0.7171    0.1270 C   0  0  0  0  0  0  0  0  0  0  0  0
    1.0216   -0.0031    0.5635 C   0  0  0  0  0  0  0  0  0  0  0  0
   -1.7024   -1.0900    0.5629 C   0  0  0  0  0  0  0  0  0  0  0  0
   -3.0705   -1.3955    0.3797 O   0  0  0  0  0  0  0  0  0  0  0  0
   -3.8693   -0.2515    0.6537 C   0  0  2  0  0  0  0  0  0  0  0  0
   -5.3110   -0.5662    0.3098 C   0  0  0  0  0  0  0  0  0  0  0  0
   -5.6208   -1.2795   -0.8641 C   0  0  0  0  0  0  0  0  0  0  0  0
   -6.9515   -1.5358   -1.2077 C   0  0  0  0  0  0  0  0  0  0  0  0
   -7.2379   -2.2307   -2.3361 F   0  0  0  0  0  0  0  0  0  0  0  0
   -7.9864   -1.0711   -0.3932 C   0  0  0  0  0  0  0  0  0  0  0  0
   -7.6932   -0.3431    0.7619 C   0  0  0  0  0  0  0  0  0  0  0  0
   -6.3643   -0.0824    1.1122 C   0  0  0  0  0  0  0  0  0  0  0  0
   -6.1092    0.6477    2.2277 F   0  0  0  0  0  0  0  0  0  0  0  0
   -2.5318    2.8413    0.2386 H   0  0  0  0  0  0  0  0  0  0  0  0
   -3.5721    2.3210    1.4356 H   0  0  0  0  0  0  0  0  0  0  0  0
   -4.2498    1.4953   -0.6617 H   0  0  0  0  0  0  0  0  0  0  0  0
   -2.0206    1.5142   -1.7527 H   0  0  0  0  0  0  0  0  0  0  0  0
   -2.8606   -0.0322   -1.9448 H   0  0  0  0  0  0  0  0  0  0  0  0
   -0.7536   -0.8337   -1.3796 H   0  0  0  0  0  0  0  0  0  0  0  0
    0.0852    2.5971   -1.1099 H   0  0  0  0  0  0  0  0  0  0  0  0
    0.3542    1.1278   -2.1607 H   0  0  0  0  0  0  0  0  0  0  0  0
    3.1085    2.1088   -2.6334 H   0  0  0  0  0  0  0  0  0  0  0  0
    6.1425   -2.2566   -1.0895 H   0  0  0  0  0  0  0  0  0  0  0  0
    8.6001   -2.0352   -1.1999 H   0  0  0  0  0  0  0  0  0  0  0  0
    9.8018   -0.6356    0.4570 H   0  0  0  0  0  0  0  0  0  0  0  0
    8.5364    0.5494    2.2301 H   0  0  0  0  0  0  0  0  0  0  0  0
    6.0772    0.3374    2.3538 H   0  0  0  0  0  0  0  0  0  0  0  0
    1.0864   -1.0593    0.2179 H   0  0  0  0  0  0  0  0  0  0  0  0
    0.9302    0.0378    1.6688 H   0  0  0  0  0  0  0  0  0  0  0  0
   -1.5354   -0.6239    1.5621 H   0  0  0  0  0  0  0  0  0  0  0  0
   -1.1321   -2.0429    0.5633 H   0  0  0  0  0  0  0  0  0  0  0  0
   -3.8171   -0.0585    1.7503 H   0  0  0  0  0  0  0  0  0  0  0  0
   -4.8320   -1.6354   -1.5149 H   0  0  0  0  0  0  0  0  0  0  0  0
   -9.0167   -1.2679   -0.6604 H   0  0  0  0  0  0  0  0  0  0  0  0
   -8.4987    0.0254    1.3842 H   0  0  0  0  0  0  0  0  0  0  0  0
  1  2  1  0
  2  3  1  0
  3  4  1  0
  4  5  1  0
  5  6  1  0
  6  7  1  0
  7  8  1  0
  8  9  2  0
  9 10  1  0
 10 11  1  0
 11 12  2  0
 11 13  2  0
 11 14  1  0
 14 15  2  0
 15 16  1  0
 16 17  2  0
 17 18  1  0
 18 19  2  0
 10 20  1  0
 20 21  1  0
  4 22  1  0
 22 23  1  0
 23 24  1  0
 24 25  1  0
 25 26  2  0
 26 27  1  0
 27 28  1  0
 27 29  2  0
 29 30  1  0
 30 31  2  0
 31 32  1  0
 24  2  1  0
 31 25  1  0
 21  5  1  0
 20  7  2  0
 19 14  1  0
  1 33  1  0
  1 34  1  0
  2 35  1  6
  3 36  1  0
  3 37  1  0
  4 38  1  6
  6 39  1  0
  6 40  1  0
  8 41  1  0
 15 42  1  0
 16 43  1  0
 17 44  1  0
 18 45  1  0
 19 46  1  0
 21 47  1  0
 21 48  1  0
 22 49  1  0
 22 50  1  0
 24 51  1  1
 26 52  1  0
 29 53  1  0
 30 54  1  0
M  END
$$$$
