
     RDKit          3D

 51 52  0  0  0  0  0  0  0  0999 V2000
   -1.6201    3.7639    1.2447 C   0  0  0  0  0  0  0  0  0  0  0  0
   -0.6405    2.5921    1.4995 C   0  0  0  0  0  0  0  0  0  0  0  0
   -0.8135    2.1827    2.9813 C   0  0  0  0  0  0  0  0  0  0  0  0
    0.8209    3.0772    1.2404 C   0  0  0  0  0  0  0  0  0  0  0  0
    1.8774    2.0568    1.5744 C   0  0  0  0  0  0  0  0  0  0  0  0
    2.2318    1.9075    2.7754 O   0  0  0  0  0  0  0  0  0  0  0  0
    2.4970    1.2798    0.5387 N   0  0  0  0  0  0  0  0  0  0  0  0
    3.3883    0.1570    0.8214 C   0  0  0  0  0  0  0  0  0  0  0  0
    2.6197   -1.1350    0.7830 C   0  0  0  0  0  0  0  0  0  0  0  0
    1.7473   -1.4693    1.8322 C   0  0  0  0  0  0  0  0  0  0  0  0
    1.0305   -2.6693    1.7974 C   0  0  0  0  0  0  0  0  0  0  0  0
    1.1806   -3.5438    0.7179 C   0  0  0  0  0  0  0  0  0  0  0  0
    2.0397   -3.2147   -0.3339 C   0  0  0  0  0  0  0  0  0  0  0  0
    2.7528   -2.0121   -0.3068 C   0  0  0  0  0  0  0  0  0  0  0  0
   -1.0085    1.4238    0.6605 N   0  0  0  0  0  0  0  0  0  0  0  0
   -0.8832    1.6049   -0.7960 C   0  0  0  0  0  0  0  0  0  0  0  0
   -2.0019    0.8750   -1.4802 C   0  0  0  0  0  0  0  0  0  0  0  0
   -3.0752    1.4973   -1.7060 O   0  0  0  0  0  0  0  0  0  0  0  0
   -1.9045   -0.5204   -1.8280 N   0  0  0  0  0  0  0  0  0  0  0  0
   -3.0431   -1.2750   -2.3276 C   0  0  0  0  0  0  0  0  0  0  0  0
   -2.5288   -2.6871   -2.5750 C   0  0  0  0  0  0  0  0  0  0  0  0
   -1.2266   -2.7925   -1.7879 C   0  0  0  0  0  0  0  0  0  0  0  0
   -0.7299   -1.3568   -1.6218 C   0  0  1  0  0  0  0  0  0  0  0  0
    0.2981   -1.0378   -2.6262 C   0  0  0  0  0  0  0  0  0  0  0  0
    1.1075   -0.7862   -3.4140 N   0  0  0  0  0  0  0  0  0  0  0  0
   -1.5219    4.5378    2.0369 H   0  0  0  0  0  0  0  0  0  0  0  0
   -1.4228    4.2756    0.2811 H   0  0  0  0  0  0  0  0  0  0  0  0
   -2.6694    3.3978    1.2428 H   0  0  0  0  0  0  0  0  0  0  0  0
   -0.2294    1.2688    3.2181 H   0  0  0  0  0  0  0  0  0  0  0  0
   -0.4829    2.9980    3.6607 H   0  0  0  0  0  0  0  0  0  0  0  0
   -1.8798    1.9548    3.1978 H   0  0  0  0  0  0  0  0  0  0  0  0
    1.0173    3.9845    1.8536 H   0  0  0  0  0  0  0  0  0  0  0  0
    0.9423    3.3960    0.1838 H   0  0  0  0  0  0  0  0  0  0  0  0
    2.2664    1.4799   -0.4594 H   0  0  0  0  0  0  0  0  0  0  0  0
    4.2057    0.1483    0.0682 H   0  0  0  0  0  0  0  0  0  0  0  0
    3.8750    0.2760    1.8133 H   0  0  0  0  0  0  0  0  0  0  0  0
    1.6238   -0.8034    2.6766 H   0  0  0  0  0  0  0  0  0  0  0  0
    0.3591   -2.9216    2.6079 H   0  0  0  0  0  0  0  0  0  0  0  0
    0.6245   -4.4718    0.6918 H   0  0  0  0  0  0  0  0  0  0  0  0
    2.1463   -3.8874   -1.1750 H   0  0  0  0  0  0  0  0  0  0  0  0
    3.4081   -1.7676   -1.1334 H   0  0  0  0  0  0  0  0  0  0  0  0
   -0.4290    0.5969    0.9379 H   0  0  0  0  0  0  0  0  0  0  0  0
   -0.9324    2.6677   -1.1014 H   0  0  0  0  0  0  0  0  0  0  0  0
    0.0951    1.2279   -1.1515 H   0  0  0  0  0  0  0  0  0  0  0  0
   -3.4232   -0.8252   -3.2704 H   0  0  0  0  0  0  0  0  0  0  0  0
   -3.8486   -1.2858   -1.5612 H   0  0  0  0  0  0  0  0  0  0  0  0
   -3.2649   -3.4524   -2.2462 H   0  0  0  0  0  0  0  0  0  0  0  0
   -2.3171   -2.8229   -3.6585 H   0  0  0  0  0  0  0  0  0  0  0  0
   -1.4467   -3.2195   -0.7845 H   0  0  0  0  0  0  0  0  0  0  0  0
   -0.4937   -3.4565   -2.2986 H   0  0  0  0  0  0  0  0  0  0  0  0
   -0.3175   -1.2142   -0.6018 H   0  0  0  0  0  0  0  0  0  0  0  0
  1  2  1  0
  2  3  1  0
  2  4  1  0
  4  5  1  0
  5  6  2  0
  5  7  1  0
  7  8  1  0
  8  9  1  0
  9 10  2  0
 10 11  1  0
 11 12  2  0
 12 13  1  0
 13 14  2  0
  2 15  1  0
 15 16  1  0
 16 17  1  0
 17 18  2  0
 17 19  1  0
 19 20  1  0
 20 21  1  0
 21 22  1  0
 22 23  1  0
 23 24  1  0
 24 25  3  0
 14  9  1  0
 23 19  1  0
  1 26  1  0
  1 27  1  0
  1 28  1  0
  3 29  1  0
  3 30  1  0
  3 31  1  0
  4 32  1  0
  4 33  1  0
  7 34  1  0
  8 35  1  0
  8 36  1  0
 10 37  1  0
 11 38  1  0
 12 39  1  0
 13 40  1  0
 14 41  1  0
 15 42  1  0
 16 43  1  0
 16 44  1  0
 20 45  1  0
 20 46  1  0
 21 47  1  0
 21 48  1  0
 22 49  1  0
 22 50  1  0
 23 51  1  1
M  END
$$$$
