
     RDKit          3D

 55 57  0  0  0  0  0  0  0  0999 V2000
   -2.2442    3.4702   -0.0657 C   0  0  0  0  0  0  0  0  0  0  0  0
   -1.1472    2.4091   -0.3016 C   0  0  0  0  0  0  0  0  0  0  0  0
   -1.2253    2.0048   -1.7963 C   0  0  0  0  0  0  0  0  0  0  0  0
    0.2264    3.0782    0.0234 C   0  0  0  0  0  0  0  0  0  0  0  0
    1.4148    2.1633   -0.0666 C   0  0  0  0  0  0  0  0  0  0  0  0
    1.9301    1.9217   -1.1917 O   0  0  0  0  0  0  0  0  0  0  0  0
    1.9752    1.5849    1.1195 N   0  0  0  0  0  0  0  0  0  0  0  0
    3.2147    0.8144    1.0765 C   0  0  1  0  0  0  0  0  0  0  0  0
    3.3703   -0.1627    2.2303 C   0  0  0  0  0  0  0  0  0  0  0  0
    2.9951   -0.6749    0.8410 C   0  0  2  0  0  0  0  0  0  0  0  0
    4.1047   -1.3711    0.1003 C   0  0  0  0  0  0  0  0  0  0  0  0
    4.4239   -0.9872   -1.2124 C   0  0  0  0  0  0  0  0  0  0  0  0
    5.4226   -1.6631   -1.9207 C   0  0  0  0  0  0  0  0  0  0  0  0
    6.0985   -2.7342   -1.3299 C   0  0  0  0  0  0  0  0  0  0  0  0
    5.7695   -3.1394   -0.0320 C   0  0  0  0  0  0  0  0  0  0  0  0
    6.6055   -4.4960    0.7011 Cl  0  0  0  0  0  0  0  0  0  0  0  0
    4.7672   -2.4675    0.6774 C   0  0  0  0  0  0  0  0  0  0  0  0
   -1.4517    1.2823    0.6214 N   0  0  0  0  0  0  0  0  0  0  0  0
   -0.9412   -0.0555    0.2777 C   0  0  0  0  0  0  0  0  0  0  0  0
   -1.9199   -0.8201   -0.5743 C   0  0  0  0  0  0  0  0  0  0  0  0
   -1.5019   -1.3260   -1.6523 O   0  0  0  0  0  0  0  0  0  0  0  0
   -3.2910   -1.0394   -0.1793 N   0  0  0  0  0  0  0  0  0  0  0  0
   -4.2246   -1.7593   -1.0328 C   0  0  0  0  0  0  0  0  0  0  0  0
   -5.5206   -1.8639   -0.2377 C   0  0  0  0  0  0  0  0  0  0  0  0
   -6.6193   -1.6413   -1.0517 F   0  0  0  0  0  0  0  0  0  0  0  0
   -5.6210   -3.1198    0.3384 F   0  0  0  0  0  0  0  0  0  0  0  0
   -5.4210   -0.8002    0.8542 C   0  0  0  0  0  0  0  0  0  0  0  0
   -3.9257   -0.5249    1.0305 C   0  0  1  0  0  0  0  0  0  0  0  0
   -3.3952   -1.2137    2.2187 C   0  0  0  0  0  0  0  0  0  0  0  0
   -2.9803   -1.7550    3.1538 N   0  0  0  0  0  0  0  0  0  0  0  0
   -3.2496    3.0437   -0.2762 H   0  0  0  0  0  0  0  0  0  0  0  0
   -2.0975    4.3587   -0.7175 H   0  0  0  0  0  0  0  0  0  0  0  0
   -2.2389    3.8152    0.9917 H   0  0  0  0  0  0  0  0  0  0  0  0
   -1.0878    2.8955   -2.4471 H   0  0  0  0  0  0  0  0  0  0  0  0
   -2.2172    1.5620   -2.0312 H   0  0  0  0  0  0  0  0  0  0  0  0
   -0.4397    1.2744   -2.0736 H   0  0  0  0  0  0  0  0  0  0  0  0
    0.1968    3.5154    1.0453 H   0  0  0  0  0  0  0  0  0  0  0  0
    0.3968    3.9307   -0.6714 H   0  0  0  0  0  0  0  0  0  0  0  0
    1.5438    1.8074    2.0453 H   0  0  0  0  0  0  0  0  0  0  0  0
    4.1376    1.2966    0.6880 H   0  0  0  0  0  0  0  0  0  0  0  0
    2.5321   -0.1855    2.9596 H   0  0  0  0  0  0  0  0  0  0  0  0
    4.4256   -0.3187    2.5405 H   0  0  0  0  0  0  0  0  0  0  0  0
    1.9503   -1.0341    0.7427 H   0  0  0  0  0  0  0  0  0  0  0  0
    3.8999   -0.1665   -1.6861 H   0  0  0  0  0  0  0  0  0  0  0  0
    5.6697   -1.3589   -2.9298 H   0  0  0  0  0  0  0  0  0  0  0  0
    6.8707   -3.2532   -1.8839 H   0  0  0  0  0  0  0  0  0  0  0  0
    4.5090   -2.7944    1.6780 H   0  0  0  0  0  0  0  0  0  0  0  0
   -1.1326    1.5233    1.5904 H   0  0  0  0  0  0  0  0  0  0  0  0
   -0.7751   -0.6407    1.2083 H   0  0  0  0  0  0  0  0  0  0  0  0
    0.0394   -0.0014   -0.2320 H   0  0  0  0  0  0  0  0  0  0  0  0
   -4.3817   -1.1860   -1.9727 H   0  0  0  0  0  0  0  0  0  0  0  0
   -3.8282   -2.7691   -1.2770 H   0  0  0  0  0  0  0  0  0  0  0  0
   -5.9208    0.1310    0.5053 H   0  0  0  0  0  0  0  0  0  0  0  0
   -5.9219   -1.1274    1.7931 H   0  0  0  0  0  0  0  0  0  0  0  0
   -3.7692    0.5682    1.1297 H   0  0  0  0  0  0  0  0  0  0  0  0
  1  2  1  0
  2  3  1  0
  2  4  1  0
  4  5  1  0
  5  6  2  0
  5  7  1  0
  7  8  1  0
  8  9  1  0
  9 10  1  0
 10 11  1  0
 11 12  2  0
 12 13  1  0
 13 14  2  0
 14 15  1  0
 15 16  1  0
 15 17  2  0
  2 18  1  0
 18 19  1  0
 19 20  1  0
 20 21  2  0
 20 22  1  0
 22 23  1  0
 23 24  1  0
 24 25  1  0
 24 26  1  0
 24 27  1  0
 27 28  1  0
 28 29  1  0
 29 30  3  0
 10  8  1  0
 17 11  1  0
 28 22  1  0
  1 31  1  0
  1 32  1  0
  1 33  1  0
  3 34  1  0
  3 35  1  0
  3 36  1  0
  4 37  1  0
  4 38  1  0
  7 39  1  0
  8 40  1  6
  9 41  1  0
  9 42  1  0
 10 43  1  1
 12 44  1  0
 13 45  1  0
 14 46  1  0
 17 47  1  0
 18 48  1  0
 19 49  1  0
 19 50  1  0
 23 51  1  0
 23 52  1  0
 27 53  1  0
 27 54  1  0
 28 55  1  1
M  END
$$$$
