
     RDKit          3D

 65 68  0  0  0  0  0  0  0  0999 V2000
    7.0521   -1.9229    3.0115 C   0  0  0  0  0  0  0  0  0  0  0  0
    6.2788   -0.8043    2.5894 O   0  0  0  0  0  0  0  0  0  0  0  0
    5.9640   -0.5180    1.2525 C   0  0  0  0  0  0  0  0  0  0  0  0
    6.3947   -1.3285    0.1866 C   0  0  0  0  0  0  0  0  0  0  0  0
    6.0562   -0.9979   -1.1265 C   0  0  0  0  0  0  0  0  0  0  0  0
    5.2846    0.1354   -1.3913 C   0  0  0  0  0  0  0  0  0  0  0  0
    4.8350    0.9535   -0.3394 C   0  0  0  0  0  0  0  0  0  0  0  0
    4.0039    2.1582   -0.5945 C   0  0  0  0  0  0  0  0  0  0  0  0
    3.9719    3.0794    0.2664 O   0  0  0  0  0  0  0  0  0  0  0  0
    3.1534    2.3053   -1.8307 C   0  0  0  0  0  0  0  0  0  0  0  0
    2.1168    1.2595   -1.8803 N   0  0  0  0  0  0  0  0  0  0  0  0
    2.1699    0.2995   -2.8694 C   0  0  0  0  0  0  0  0  0  0  0  0
    1.2301   -0.6868   -2.9431 N   0  0  0  0  0  0  0  0  0  0  0  0
    0.2448   -0.7104   -2.0190 C   0  0  0  0  0  0  0  0  0  0  0  0
   -0.8209   -1.5704   -1.9074 C   0  0  0  0  0  0  0  0  0  0  0  0
   -1.1440   -2.6815   -2.7618 C   0  0  0  0  0  0  0  0  0  0  0  0
   -1.4051   -3.5756   -3.4482 N   0  0  0  0  0  0  0  0  0  0  0  0
   -1.5382   -1.1071   -0.8112 C   0  0  0  0  0  0  0  0  0  0  0  0
   -2.7698   -1.6676   -0.3428 N   0  0  0  0  0  0  0  0  0  0  0  0
   -2.7120   -2.7229    0.6753 C   0  0  0  0  0  0  0  0  0  0  0  0
   -4.1109   -3.2383    1.0296 C   0  0  0  0  0  0  0  0  0  0  0  0
   -5.0738   -2.0601    1.1826 C   0  0  0  0  0  0  0  0  0  0  0  0
   -5.2267   -1.2621   -0.1347 C   0  0  1  0  0  0  0  0  0  0  0  0
   -5.5055    0.1427    0.1728 N   0  0  0  0  0  0  0  0  0  0  0  0
   -4.0063   -1.3993   -1.0848 C   0  0  0  0  0  0  0  0  0  0  0  0
   -0.9441   -0.0160   -0.2610 N   0  0  0  0  0  0  0  0  0  0  0  0
   -1.4681    0.7927    0.8425 C   0  0  0  0  0  0  0  0  0  0  0  0
   -2.1785    2.0088    0.3057 C   0  0  0  0  0  0  0  0  0  0  0  0
   -2.7979    2.9107    1.0948 C   0  0  0  0  0  0  0  0  0  0  0  0
   -2.8188    2.7619    2.5973 C   0  0  0  0  0  0  0  0  0  0  0  0
   -3.4893    4.0826    0.4488 C   0  0  0  0  0  0  0  0  0  0  0  0
    0.1487    0.2198   -1.0271 C   0  0  0  0  0  0  0  0  0  0  0  0
    1.0950    1.2442   -0.9551 C   0  0  0  0  0  0  0  0  0  0  0  0
    1.0129    2.1362   -0.0673 O   0  0  0  0  0  0  0  0  0  0  0  0
    5.1911    0.6176    0.9802 C   0  0  0  0  0  0  0  0  0  0  0  0
    8.0694   -1.8726    2.5692 H   0  0  0  0  0  0  0  0  0  0  0  0
    7.1439   -1.9038    4.1168 H   0  0  0  0  0  0  0  0  0  0  0  0
    6.5512   -2.8680    2.7126 H   0  0  0  0  0  0  0  0  0  0  0  0
    6.9934   -2.2119    0.3617 H   0  0  0  0  0  0  0  0  0  0  0  0
    6.3978   -1.6202   -1.9438 H   0  0  0  0  0  0  0  0  0  0  0  0
    5.0624    0.3746   -2.4207 H   0  0  0  0  0  0  0  0  0  0  0  0
    2.6631    3.3040   -1.8344 H   0  0  0  0  0  0  0  0  0  0  0  0
    3.8021    2.2857   -2.7327 H   0  0  0  0  0  0  0  0  0  0  0  0
    2.9562    0.3173   -3.6130 H   0  0  0  0  0  0  0  0  0  0  0  0
   -2.2353   -2.3157    1.5934 H   0  0  0  0  0  0  0  0  0  0  0  0
   -2.0901   -3.5672    0.3068 H   0  0  0  0  0  0  0  0  0  0  0  0
   -4.4771   -3.9203    0.2310 H   0  0  0  0  0  0  0  0  0  0  0  0
   -4.0654   -3.8127    1.9799 H   0  0  0  0  0  0  0  0  0  0  0  0
   -6.0685   -2.4373    1.5053 H   0  0  0  0  0  0  0  0  0  0  0  0
   -4.6930   -1.3999    1.9941 H   0  0  0  0  0  0  0  0  0  0  0  0
   -6.1102   -1.6729   -0.6738 H   0  0  0  0  0  0  0  0  0  0  0  0
   -4.6388    0.5885    0.5505 H   0  0  0  0  0  0  0  0  0  0  0  0
   -5.7530    0.6406   -0.7133 H   0  0  0  0  0  0  0  0  0  0  0  0
   -4.1830   -2.2455   -1.7842 H   0  0  0  0  0  0  0  0  0  0  0  0
   -3.8949   -0.4842   -1.7083 H   0  0  0  0  0  0  0  0  0  0  0  0
   -2.1777    0.1893    1.4471 H   0  0  0  0  0  0  0  0  0  0  0  0
   -0.6382    1.0957    1.5142 H   0  0  0  0  0  0  0  0  0  0  0  0
   -2.1971    2.1545   -0.7723 H   0  0  0  0  0  0  0  0  0  0  0  0
   -3.3281    1.8157    2.8768 H   0  0  0  0  0  0  0  0  0  0  0  0
   -1.7811    2.7535    2.9918 H   0  0  0  0  0  0  0  0  0  0  0  0
   -3.3625    3.5991    3.0819 H   0  0  0  0  0  0  0  0  0  0  0  0
   -4.2819    3.7173   -0.2384 H   0  0  0  0  0  0  0  0  0  0  0  0
   -3.9615    4.7470    1.2020 H   0  0  0  0  0  0  0  0  0  0  0  0
   -2.7533    4.6799   -0.1301 H   0  0  0  0  0  0  0  0  0  0  0  0
    4.8573    1.2308    1.8086 H   0  0  0  0  0  0  0  0  0  0  0  0
  1  2  1  0
  2  3  1  0
  3  4  2  0
  4  5  1  0
  5  6  2  0
  6  7  1  0
  7  8  1  0
  8  9  2  0
  8 10  1  0
 10 11  1  0
 11 12  1  0
 12 13  2  0
 13 14  1  0
 14 15  1  0
 15 16  1  0
 16 17  3  0
 15 18  2  0
 18 19  1  0
 19 20  1  0
 20 21  1  0
 21 22  1  0
 22 23  1  0
 23 24  1  0
 23 25  1  0
 18 26  1  0
 26 27  1  0
 27 28  1  0
 28 29  2  3
 29 30  1  0
 29 31  1  0
 26 32  1  0
 32 33  1  0
 33 34  2  0
  7 35  2  0
 35  3  1  0
 33 11  1  0
 32 14  2  0
 25 19  1  0
  1 36  1  0
  1 37  1  0
  1 38  1  0
  4 39  1  0
  5 40  1  0
  6 41  1  0
 10 42  1  0
 10 43  1  0
 12 44  1  0
 20 45  1  0
 20 46  1  0
 21 47  1  0
 21 48  1  0
 22 49  1  0
 22 50  1  0
 23 51  1  6
 24 52  1  0
 24 53  1  0
 25 54  1  0
 25 55  1  0
 27 56  1  0
 27 57  1  0
 28 58  1  0
 30 59  1  0
 30 60  1  0
 30 61  1  0
 31 62  1  0
 31 63  1  0
 31 64  1  0
 35 65  1  0
M  END
$$$$
