
     RDKit          3D

 61 63  0  0  0  0  0  0  0  0999 V2000
    0.9176   -2.2670   -0.1430 C   0  0  0  0  0  0  0  0  0  0  0  0
    0.9666   -1.0020   -1.0312 C   0  0  0  0  0  0  0  0  0  0  0  0
    0.0470   -1.2341   -2.2555 C   0  0  0  0  0  0  0  0  0  0  0  0
    0.4783    0.2182   -0.1952 C   0  0  0  0  0  0  0  0  0  0  0  0
   -0.8832    0.0275    0.3095 N   0  0  0  0  0  0  0  0  0  0  0  0
   -1.1710   -0.3712    1.6608 C   0  0  0  0  0  0  0  0  0  0  0  0
   -0.2631   -0.3336    2.5353 O   0  0  0  0  0  0  0  0  0  0  0  0
   -2.5579   -0.8197    2.0654 C   0  0  0  0  0  0  0  0  0  0  0  0
   -3.1871   -1.7017    0.9988 C   0  0  0  0  0  0  0  0  0  0  0  0
   -2.8744   -3.0733    0.9708 C   0  0  0  0  0  0  0  0  0  0  0  0
   -3.3877   -3.9000   -0.0323 C   0  0  0  0  0  0  0  0  0  0  0  0
   -4.2143   -3.3678   -1.0251 C   0  0  0  0  0  0  0  0  0  0  0  0
   -4.8515   -4.4058   -2.2872 Cl  0  0  0  0  0  0  0  0  0  0  0  0
   -4.5258   -2.0057   -1.0157 C   0  0  0  0  0  0  0  0  0  0  0  0
   -4.0139   -1.1749   -0.0151 C   0  0  0  0  0  0  0  0  0  0  0  0
   -3.4615    0.3278    2.4934 C   0  0  0  0  0  0  0  0  0  0  0  0
   -3.3496    1.6227    1.9443 C   0  0  0  0  0  0  0  0  0  0  0  0
   -4.2268    2.6378    2.3372 C   0  0  0  0  0  0  0  0  0  0  0  0
   -5.2321    2.3752    3.2714 C   0  0  0  0  0  0  0  0  0  0  0  0
   -6.3327    3.6508    3.7593 Cl  0  0  0  0  0  0  0  0  0  0  0  0
   -5.3640    1.0930    3.8104 C   0  0  0  0  0  0  0  0  0  0  0  0
   -4.4894    0.0748    3.4207 C   0  0  0  0  0  0  0  0  0  0  0  0
    2.3812   -0.7974   -1.4426 N   0  0  0  0  0  0  0  0  0  0  0  0
    2.5976    0.2087   -2.4957 C   0  0  0  0  0  0  0  0  0  0  0  0
    4.0609    0.5368   -2.5868 C   0  0  0  0  0  0  0  0  0  0  0  0
    4.7211    0.0909   -3.5643 O   0  0  0  0  0  0  0  0  0  0  0  0
    4.7283    1.3192   -1.5762 N   0  0  0  0  0  0  0  0  0  0  0  0
    6.1598    1.5738   -1.6143 C   0  0  0  0  0  0  0  0  0  0  0  0
    6.4614    2.4342   -0.3926 C   0  0  1  0  0  0  0  0  0  0  0  0
    6.5658    3.7639   -0.7679 F   0  0  0  0  0  0  0  0  0  0  0  0
    5.2641    2.2559    0.5379 C   0  0  0  0  0  0  0  0  0  0  0  0
    4.1041    1.8262   -0.3604 C   0  0  1  0  0  0  0  0  0  0  0  0
    3.2336    2.9705   -0.6765 C   0  0  0  0  0  0  0  0  0  0  0  0
    2.5482    3.8691   -0.9252 N   0  0  0  0  0  0  0  0  0  0  0  0
   -0.1189   -2.5022    0.1757 H   0  0  0  0  0  0  0  0  0  0  0  0
    1.5452   -2.1282    0.7635 H   0  0  0  0  0  0  0  0  0  0  0  0
    1.3000   -3.1508   -0.6976 H   0  0  0  0  0  0  0  0  0  0  0  0
   -0.9604   -1.5808   -1.9388 H   0  0  0  0  0  0  0  0  0  0  0  0
   -0.0877   -0.2976   -2.8370 H   0  0  0  0  0  0  0  0  0  0  0  0
    0.4806   -2.0096   -2.9225 H   0  0  0  0  0  0  0  0  0  0  0  0
    1.1820    0.4020    0.6448 H   0  0  0  0  0  0  0  0  0  0  0  0
    0.4754    1.1415   -0.8072 H   0  0  0  0  0  0  0  0  0  0  0  0
   -1.6676    0.1363   -0.3698 H   0  0  0  0  0  0  0  0  0  0  0  0
   -2.4188   -1.4561    2.9697 H   0  0  0  0  0  0  0  0  0  0  0  0
   -2.2222   -3.5018    1.7218 H   0  0  0  0  0  0  0  0  0  0  0  0
   -3.1367   -4.9530   -0.0399 H   0  0  0  0  0  0  0  0  0  0  0  0
   -5.1586   -1.5873   -1.7881 H   0  0  0  0  0  0  0  0  0  0  0  0
   -4.2547   -0.1210   -0.0452 H   0  0  0  0  0  0  0  0  0  0  0  0
   -2.5930    1.8549    1.2085 H   0  0  0  0  0  0  0  0  0  0  0  0
   -4.1268    3.6276    1.9101 H   0  0  0  0  0  0  0  0  0  0  0  0
   -6.1465    0.8823    4.5282 H   0  0  0  0  0  0  0  0  0  0  0  0
   -4.6156   -0.9155    3.8407 H   0  0  0  0  0  0  0  0  0  0  0  0
    2.7733   -1.7012   -1.8012 H   0  0  0  0  0  0  0  0  0  0  0  0
    2.0411    1.1429   -2.3009 H   0  0  0  0  0  0  0  0  0  0  0  0
    2.2536   -0.1852   -3.4780 H   0  0  0  0  0  0  0  0  0  0  0  0
    6.7103    0.6098   -1.5514 H   0  0  0  0  0  0  0  0  0  0  0  0
    6.4351    2.1019   -2.5530 H   0  0  0  0  0  0  0  0  0  0  0  0
    7.4062    2.1187    0.1010 H   0  0  0  0  0  0  0  0  0  0  0  0
    5.0524    3.1807    1.1201 H   0  0  0  0  0  0  0  0  0  0  0  0
    5.4877    1.4372    1.2574 H   0  0  0  0  0  0  0  0  0  0  0  0
    3.5148    1.0314    0.1420 H   0  0  0  0  0  0  0  0  0  0  0  0
  1  2  1  0
  2  3  1  0
  2  4  1  0
  4  5  1  0
  5  6  1  0
  6  7  2  0
  6  8  1  0
  8  9  1  0
  9 10  2  0
 10 11  1  0
 11 12  2  0
 12 13  1  0
 12 14  1  0
 14 15  2  0
  8 16  1  0
 16 17  2  0
 17 18  1  0
 18 19  2  0
 19 20  1  0
 19 21  1  0
 21 22  2  0
  2 23  1  0
 23 24  1  0
 24 25  1  0
 25 26  2  0
 25 27  1  0
 27 28  1  0
 28 29  1  0
 29 30  1  0
 29 31  1  0
 31 32  1  0
 32 33  1  0
 33 34  3  0
 15  9  1  0
 22 16  1  0
 32 27  1  0
  1 35  1  0
  1 36  1  0
  1 37  1  0
  3 38  1  0
  3 39  1  0
  3 40  1  0
  4 41  1  0
  4 42  1  0
  5 43  1  0
  8 44  1  0
 10 45  1  0
 11 46  1  0
 14 47  1  0
 15 48  1  0
 17 49  1  0
 18 50  1  0
 21 51  1  0
 22 52  1  0
 23 53  1  0
 24 54  1  0
 24 55  1  0
 28 56  1  0
 28 57  1  0
 29 58  1  1
 31 59  1  0
 31 60  1  0
 32 61  1  1
M  END
$$$$
