
     RDKit          3D

 66 68  0  0  0  0  0  0  0  0999 V2000
    6.2234    2.7860   -2.9070 C   0  0  0  0  0  0  0  0  0  0  0  0
    4.9810    2.2515   -2.4656 O   0  0  0  0  0  0  0  0  0  0  0  0
    4.8105    1.6790   -1.2018 C   0  0  0  0  0  0  0  0  0  0  0  0
    3.5610    1.1756   -0.8397 C   0  0  0  0  0  0  0  0  0  0  0  0
    3.4049    0.6041    0.4324 C   0  0  0  0  0  0  0  0  0  0  0  0
    2.0814    0.0385    0.8943 C   0  0  1  0  0  0  0  0  0  0  0  0
    0.9933    1.1249    0.9366 C   0  0  0  0  0  0  0  0  0  0  0  0
   -0.3380    0.5369    1.4169 C   0  0  0  0  0  0  0  0  0  0  0  0
   -0.8145   -0.6166    0.4913 C   0  0  2  0  0  0  0  0  0  0  0  0
   -2.2057   -1.1713    0.9573 C   0  0  2  0  0  0  0  0  0  0  0  0
   -2.5088   -2.5563    0.3885 C   0  0  0  0  0  0  0  0  0  0  0  0
   -2.3844   -2.7356   -0.8555 O   0  0  0  0  0  0  0  0  0  0  0  0
   -2.9607   -3.6561    1.2130 N   0  0  0  0  0  0  0  0  0  0  0  0
   -3.4746   -4.8624    0.5552 C   0  0  0  0  0  0  0  0  0  0  0  0
   -2.8685   -3.6105    2.6765 C   0  0  0  0  0  0  0  0  0  0  0  0
   -3.3936   -0.1900    0.6681 C   0  0  2  0  0  0  0  0  0  0  0  0
   -4.5836   -0.6258    1.4059 N   0  0  0  0  0  0  0  0  0  0  0  0
   -3.7343   -0.0841   -0.8113 C   0  0  0  0  0  0  0  0  0  0  0  0
   -4.4498   -0.9840   -1.3321 O   0  0  0  0  0  0  0  0  0  0  0  0
   -3.2803    1.0082   -1.6358 N   0  0  0  0  0  0  0  0  0  0  0  0
   -2.7055    2.2480   -1.1390 C   0  0  0  0  0  0  0  0  0  0  0  0
   -2.3803    3.0798   -2.3727 C   0  0  0  0  0  0  0  0  0  0  0  0
   -3.1760    2.4559   -3.5165 C   0  0  0  0  0  0  0  0  0  0  0  0
   -4.3546    3.1596   -3.7055 F   0  0  0  0  0  0  0  0  0  0  0  0
   -2.4434    2.4626   -4.6916 F   0  0  0  0  0  0  0  0  0  0  0  0
   -3.4869    1.0302   -3.0750 C   0  0  0  0  0  0  0  0  0  0  0  0
    0.2912   -1.7082    0.4803 C   0  0  0  0  0  0  0  0  0  0  0  0
    1.6383   -1.1406    0.0115 C   0  0  0  0  0  0  0  0  0  0  0  0
    4.4735    0.5572    1.2727 N   0  0  0  0  0  0  0  0  0  0  0  0
    5.6875    1.0519    0.9067 C   0  0  0  0  0  0  0  0  0  0  0  0
    6.7766    0.9971    1.7801 O   0  0  0  0  0  0  0  0  0  0  0  0
    6.6898    0.4319    3.0829 C   0  0  0  0  0  0  0  0  0  0  0  0
    5.8464    1.6067   -0.3223 N   0  0  0  0  0  0  0  0  0  0  0  0
    6.1052    3.1800   -3.9372 H   0  0  0  0  0  0  0  0  0  0  0  0
    6.9989    1.9909   -2.9127 H   0  0  0  0  0  0  0  0  0  0  0  0
    6.5397    3.6148   -2.2389 H   0  0  0  0  0  0  0  0  0  0  0  0
    2.7346    1.2310   -1.5366 H   0  0  0  0  0  0  0  0  0  0  0  0
    2.2161   -0.3473    1.9310 H   0  0  0  0  0  0  0  0  0  0  0  0
    0.8477    1.5760   -0.0694 H   0  0  0  0  0  0  0  0  0  0  0  0
    1.3041    1.9335    1.6338 H   0  0  0  0  0  0  0  0  0  0  0  0
   -1.0739    1.3605    1.4640 H   0  0  0  0  0  0  0  0  0  0  0  0
   -0.2141    0.1598    2.4566 H   0  0  0  0  0  0  0  0  0  0  0  0
   -0.9188   -0.2321   -0.5470 H   0  0  0  0  0  0  0  0  0  0  0  0
   -2.1282   -1.2531    2.0594 H   0  0  0  0  0  0  0  0  0  0  0  0
   -2.6757   -5.3206   -0.0654 H   0  0  0  0  0  0  0  0  0  0  0  0
   -3.8224   -5.6194    1.2890 H   0  0  0  0  0  0  0  0  0  0  0  0
   -4.3346   -4.5953   -0.0948 H   0  0  0  0  0  0  0  0  0  0  0  0
   -3.1636   -4.5760    3.1380 H   0  0  0  0  0  0  0  0  0  0  0  0
   -1.8215   -3.4003    2.9814 H   0  0  0  0  0  0  0  0  0  0  0  0
   -3.5440   -2.8259    3.0745 H   0  0  0  0  0  0  0  0  0  0  0  0
   -3.1372    0.8183    1.0462 H   0  0  0  0  0  0  0  0  0  0  0  0
   -5.3557    0.0573    1.2250 H   0  0  0  0  0  0  0  0  0  0  0  0
   -4.3818   -0.5578    2.4301 H   0  0  0  0  0  0  0  0  0  0  0  0
   -3.4451    2.7742   -0.4975 H   0  0  0  0  0  0  0  0  0  0  0  0
   -1.7766    2.0509   -0.5729 H   0  0  0  0  0  0  0  0  0  0  0  0
   -2.6465    4.1486   -2.2217 H   0  0  0  0  0  0  0  0  0  0  0  0
   -1.2914    3.0074   -2.5902 H   0  0  0  0  0  0  0  0  0  0  0  0
   -4.5373    0.7646   -3.3252 H   0  0  0  0  0  0  0  0  0  0  0  0
   -2.7952    0.3046   -3.5555 H   0  0  0  0  0  0  0  0  0  0  0  0
    0.4029   -2.1453    1.4974 H   0  0  0  0  0  0  0  0  0  0  0  0
    0.0308   -2.5323   -0.2144 H   0  0  0  0  0  0  0  0  0  0  0  0
    2.4046   -1.9453    0.0570 H   0  0  0  0  0  0  0  0  0  0  0  0
    1.5430   -0.8191   -1.0488 H   0  0  0  0  0  0  0  0  0  0  0  0
    7.6792    0.5056    3.5789 H   0  0  0  0  0  0  0  0  0  0  0  0
    6.4001   -0.6381    3.0147 H   0  0  0  0  0  0  0  0  0  0  0  0
    5.9414    0.9857    3.6886 H   0  0  0  0  0  0  0  0  0  0  0  0
  1  2  1  0
  2  3  1  0
  3  4  2  0
  4  5  1  0
  5  6  1  0
  6  7  1  0
  7  8  1  0
  8  9  1  0
  9 10  1  0
 10 11  1  0
 11 12  2  0
 11 13  1  0
 13 14  1  0
 13 15  1  0
 10 16  1  0
 16 17  1  0
 16 18  1  0
 18 19  2  0
 18 20  1  0
 20 21  1  0
 21 22  1  0
 22 23  1  0
 23 24  1  0
 23 25  1  0
 23 26  1  0
  9 27  1  0
 27 28  1  0
  5 29  2  0
 29 30  1  0
 30 31  1  0
 31 32  1  0
 30 33  2  0
 33  3  1  0
 28  6  1  0
 26 20  1  0
  1 34  1  0
  1 35  1  0
  1 36  1  0
  4 37  1  0
  6 38  1  1
  7 39  1  0
  7 40  1  0
  8 41  1  0
  8 42  1  0
  9 43  1  6
 10 44  1  1
 14 45  1  0
 14 46  1  0
 14 47  1  0
 15 48  1  0
 15 49  1  0
 15 50  1  0
 16 51  1  1
 17 52  1  0
 17 53  1  0
 21 54  1  0
 21 55  1  0
 22 56  1  0
 22 57  1  0
 26 58  1  0
 26 59  1  0
 27 60  1  0
 27 61  1  0
 28 62  1  0
 28 63  1  0
 32 64  1  0
 32 65  1  0
 32 66  1  0
M  END
$$$$
