
     RDKit          3D

 61 65  0  0  0  0  0  0  0  0999 V2000
   -1.3530   -0.2243    3.0375 N   0  0  0  0  0  0  0  0  0  0  0  0
   -2.3431   -0.6983    2.6714 C   0  0  0  0  0  0  0  0  0  0  0  0
   -3.5757   -1.3000    2.2248 C   0  0  0  0  0  0  0  0  0  0  0  0
   -4.2967   -2.0885    3.1328 C   0  0  0  0  0  0  0  0  0  0  0  0
   -5.4931   -2.6955    2.7473 C   0  0  0  0  0  0  0  0  0  0  0  0
   -5.9810   -2.5191    1.4525 C   0  0  0  0  0  0  0  0  0  0  0  0
   -7.1450   -3.1072    1.0818 F   0  0  0  0  0  0  0  0  0  0  0  0
   -5.2724   -1.7362    0.5379 C   0  0  0  0  0  0  0  0  0  0  0  0
   -4.0597   -1.1237    0.9053 C   0  0  0  0  0  0  0  0  0  0  0  0
   -3.3303   -0.2690   -0.1158 C   0  0  0  0  0  0  0  0  0  0  0  0
   -1.9388   -0.7208   -0.3464 N   0  0  0  0  0  0  0  0  0  0  0  0
   -0.8864    0.1867   -0.3060 C   0  0  0  0  0  0  0  0  0  0  0  0
   -1.1215    1.5976   -0.1841 N   0  0  0  0  0  0  0  0  0  0  0  0
   -0.5943    2.3181    0.9828 C   0  0  0  0  0  0  0  0  0  0  0  0
   -0.3148    3.7868    0.6466 C   0  0  0  0  0  0  0  0  0  0  0  0
   -1.5458    4.4900    0.0470 C   0  0  0  0  0  0  0  0  0  0  0  0
   -2.3985    3.5833   -0.8770 C   0  0  1  0  0  0  0  0  0  0  0  0
   -2.9041    4.3513   -2.0169 N   0  0  0  0  0  0  0  0  0  0  0  0
   -1.6253    2.3373   -1.3473 C   0  0  0  0  0  0  0  0  0  0  0  0
    0.4043   -0.2410   -0.4460 N   0  0  0  0  0  0  0  0  0  0  0  0
    0.6435   -1.5500   -0.6717 C   0  0  0  0  0  0  0  0  0  0  0  0
    1.8421   -2.2184   -0.8361 C   0  0  0  0  0  0  0  0  0  0  0  0
    3.2196   -1.6696   -0.8012 C   0  0  0  0  0  0  0  0  0  0  0  0
    4.3009   -2.4973   -0.4498 C   0  0  0  0  0  0  0  0  0  0  0  0
    5.6022   -1.9883   -0.4122 C   0  0  0  0  0  0  0  0  0  0  0  0
    5.8454   -0.6480   -0.7344 C   0  0  0  0  0  0  0  0  0  0  0  0
    7.4835   -0.0064   -0.6709 S   0  0  0  0  0  0  0  0  0  0  0  0
    7.8171    0.5591    0.9280 N   0  0  0  0  0  0  0  0  0  0  0  0
    8.4653   -1.0825   -1.0424 O   0  0  0  0  0  0  0  0  0  0  0  0
    7.6236    1.1306   -1.6440 O   0  0  0  0  0  0  0  0  0  0  0  0
    4.7746    0.1828   -1.0852 C   0  0  0  0  0  0  0  0  0  0  0  0
    3.4721   -0.3234   -1.1228 C   0  0  0  0  0  0  0  0  0  0  0  0
    1.4711   -3.5515   -1.0368 C   0  0  0  0  0  0  0  0  0  0  0  0
    0.1235   -3.6845   -1.0060 N   0  0  0  0  0  0  0  0  0  0  0  0
   -0.3602   -2.4516   -0.7789 C   0  0  0  0  0  0  0  0  0  0  0  0
   -1.6801   -2.0464   -0.6383 C   0  0  0  0  0  0  0  0  0  0  0  0
   -2.6121   -2.8850   -0.7783 O   0  0  0  0  0  0  0  0  0  0  0  0
   -3.9325   -2.2344    4.1429 H   0  0  0  0  0  0  0  0  0  0  0  0
   -6.0429   -3.3024    3.4553 H   0  0  0  0  0  0  0  0  0  0  0  0
   -5.6704   -1.6110   -0.4615 H   0  0  0  0  0  0  0  0  0  0  0  0
   -3.8653   -0.2658   -1.0904 H   0  0  0  0  0  0  0  0  0  0  0  0
   -3.3693    0.7706    0.2673 H   0  0  0  0  0  0  0  0  0  0  0  0
   -1.3337    2.2606    1.8095 H   0  0  0  0  0  0  0  0  0  0  0  0
    0.3542    1.8514    1.3280 H   0  0  0  0  0  0  0  0  0  0  0  0
    0.5222    3.8308   -0.0847 H   0  0  0  0  0  0  0  0  0  0  0  0
    0.0122    4.3237    1.5632 H   0  0  0  0  0  0  0  0  0  0  0  0
   -1.1907    5.3871   -0.5065 H   0  0  0  0  0  0  0  0  0  0  0  0
   -2.1887    4.8594    0.8760 H   0  0  0  0  0  0  0  0  0  0  0  0
   -3.2729    3.2270   -0.2866 H   0  0  0  0  0  0  0  0  0  0  0  0
   -2.1091    4.5824   -2.6570 H   0  0  0  0  0  0  0  0  0  0  0  0
   -3.5715    3.7516   -2.5549 H   0  0  0  0  0  0  0  0  0  0  0  0
   -0.7682    2.6348   -1.9899 H   0  0  0  0  0  0  0  0  0  0  0  0
   -2.2997    1.6924   -1.9519 H   0  0  0  0  0  0  0  0  0  0  0  0
    4.1410   -3.5345   -0.1850 H   0  0  0  0  0  0  0  0  0  0  0  0
    6.4187   -2.6393   -0.1267 H   0  0  0  0  0  0  0  0  0  0  0  0
    8.8142    0.8704    0.9403 H   0  0  0  0  0  0  0  0  0  0  0  0
    7.7513   -0.2672    1.5637 H   0  0  0  0  0  0  0  0  0  0  0  0
    4.9463    1.2226   -1.3331 H   0  0  0  0  0  0  0  0  0  0  0  0
    2.6722    0.3374   -1.4258 H   0  0  0  0  0  0  0  0  0  0  0  0
    2.1472   -4.3781   -1.2110 H   0  0  0  0  0  0  0  0  0  0  0  0
   -0.4213   -4.5670   -1.1278 H   0  0  0  0  0  0  0  0  0  0  0  0
  1  2  3  0
  2  3  1  0
  3  4  2  0
  4  5  1  0
  5  6  2  0
  6  7  1  0
  6  8  1  0
  8  9  2  0
  9 10  1  0
 10 11  1  0
 11 12  1  0
 12 13  1  0
 13 14  1  0
 14 15  1  0
 15 16  1  0
 16 17  1  0
 17 18  1  0
 17 19  1  0
 12 20  2  0
 20 21  1  0
 21 22  1  0
 22 23  1  0
 23 24  2  0
 24 25  1  0
 25 26  2  0
 26 27  1  0
 27 28  1  0
 27 29  2  0
 27 30  2  0
 26 31  1  0
 31 32  2  0
 22 33  2  0
 33 34  1  0
 34 35  1  0
 35 36  1  0
 36 37  2  0
  9  3  1  0
 36 11  1  0
 19 13  1  0
 35 21  2  0
 32 23  1  0
  4 38  1  0
  5 39  1  0
  8 40  1  0
 10 41  1  0
 10 42  1  0
 14 43  1  0
 14 44  1  0
 15 45  1  0
 15 46  1  0
 16 47  1  0
 16 48  1  0
 17 49  1  1
 18 50  1  0
 18 51  1  0
 19 52  1  0
 19 53  1  0
 24 54  1  0
 25 55  1  0
 28 56  1  0
 28 57  1  0
 31 58  1  0
 32 59  1  0
 33 60  1  0
 34 61  1  0
M  END
$$$$
