
     RDKit          3D

 37 39  0  0  0  0  0  0  0  0999 V2000
    6.8266    0.8322   -1.9006 N   0  0  0  0  0  0  0  0  0  0  0  0
    5.9138    0.4118   -1.3268 C   0  0  0  0  0  0  0  0  0  0  0  0
    4.7541   -0.1218   -0.5983 C   0  0  2  0  0  0  0  0  0  0  0  0
    4.5721   -1.6127   -0.8717 C   0  0  0  0  0  0  0  0  0  0  0  0
    3.4746   -1.8104   -2.3149 S   0  0  0  0  0  0  0  0  0  0  0  0
    2.7832   -0.1385   -2.0885 C   0  0  1  0  0  0  0  0  0  0  0  0
    1.3264   -0.1550   -1.5910 C   0  0  0  0  0  0  0  0  0  0  0  0
    1.2212    0.9670   -0.5372 C   0  0  1  0  0  0  0  0  0  0  0  0
    0.4604    0.5307    0.6459 N   0  0  0  0  0  0  0  0  0  0  0  0
   -0.9802    0.5019    0.3595 C   0  0  0  0  0  0  0  0  0  0  0  0
   -1.7376   -0.0805    1.5550 C   0  0  0  0  0  0  0  0  0  0  0  0
   -3.2140   -0.1445    1.2689 C   0  0  0  0  0  0  0  0  0  0  0  0
   -4.0410    0.9530    1.5617 C   0  0  0  0  0  0  0  0  0  0  0  0
   -5.4067    0.9045    1.2648 C   0  0  0  0  0  0  0  0  0  0  0  0
   -5.9535   -0.2338    0.6658 C   0  0  0  0  0  0  0  0  0  0  0  0
   -5.1346   -1.3241    0.3588 C   0  0  0  0  0  0  0  0  0  0  0  0
   -3.7684   -1.2797    0.6540 C   0  0  0  0  0  0  0  0  0  0  0  0
    2.6482    1.2059   -0.1987 C   0  0  0  0  0  0  0  0  0  0  0  0
    3.0340    1.9397    0.7505 O   0  0  0  0  0  0  0  0  0  0  0  0
    3.5487    0.5411   -1.0668 N   0  0  0  0  0  0  0  0  0  0  0  0
    4.9095    0.0459    0.4902 H   0  0  0  0  0  0  0  0  0  0  0  0
    5.5391   -2.1329   -1.0452 H   0  0  0  0  0  0  0  0  0  0  0  0
    4.0731   -2.0853    0.0013 H   0  0  0  0  0  0  0  0  0  0  0  0
    2.8554    0.4303   -3.0405 H   0  0  0  0  0  0  0  0  0  0  0  0
    0.6194    0.0205   -2.4304 H   0  0  0  0  0  0  0  0  0  0  0  0
    1.0948   -1.1393   -1.1262 H   0  0  0  0  0  0  0  0  0  0  0  0
    0.7956    1.8958   -0.9813 H   0  0  0  0  0  0  0  0  0  0  0  0
    0.6054    1.2374    1.4059 H   0  0  0  0  0  0  0  0  0  0  0  0
   -1.1833   -0.1346   -0.5302 H   0  0  0  0  0  0  0  0  0  0  0  0
   -1.3506    1.5320    0.1520 H   0  0  0  0  0  0  0  0  0  0  0  0
   -1.3505   -1.0992    1.7778 H   0  0  0  0  0  0  0  0  0  0  0  0
   -1.5550    0.5466    2.4552 H   0  0  0  0  0  0  0  0  0  0  0  0
   -3.6280    1.8445    2.0174 H   0  0  0  0  0  0  0  0  0  0  0  0
   -6.0406    1.7508    1.4960 H   0  0  0  0  0  0  0  0  0  0  0  0
   -7.0104   -0.2692    0.4355 H   0  0  0  0  0  0  0  0  0  0  0  0
   -5.5579   -2.2024   -0.1111 H   0  0  0  0  0  0  0  0  0  0  0  0
   -3.1431   -2.1274    0.4025 H   0  0  0  0  0  0  0  0  0  0  0  0
  1  2  3  0
  2  3  1  0
  3  4  1  0
  4  5  1  0
  5  6  1  0
  6  7  1  0
  7  8  1  0
  8  9  1  0
  9 10  1  0
 10 11  1  0
 11 12  1  0
 12 13  2  0
 13 14  1  0
 14 15  2  0
 15 16  1  0
 16 17  2  0
  8 18  1  0
 18 19  2  0
 18 20  1  0
 20  3  1  0
 20  6  1  0
 17 12  1  0
  3 21  1  1
  4 22  1  0
  4 23  1  0
  6 24  1  6
  7 25  1  0
  7 26  1  0
  8 27  1  6
  9 28  1  0
 10 29  1  0
 10 30  1  0
 11 31  1  0
 11 32  1  0
 13 33  1  0
 14 34  1  0
 15 35  1  0
 16 36  1  0
 17 37  1  0
M  END
$$$$
