
     RDKit          3D

 36 36  0  0  0  0  0  0  0  0999 V2000
   -2.9723   -0.2886   -2.1849 C   0  0  0  0  0  0  0  0  0  0  0  0
   -2.9423   -0.0750   -0.6566 C   0  0  0  0  0  0  0  0  0  0  0  0
   -3.4962   -1.2610    0.0149 N   0  0  0  0  0  0  0  0  0  0  0  0
   -1.4811    0.1464   -0.1981 C   0  0  0  0  0  0  0  0  0  0  0  0
   -1.4069    0.3825    1.2525 N   0  0  0  0  0  0  0  0  0  0  0  0
   -0.0431    0.7379    1.6752 C   0  0  0  0  0  0  0  0  0  0  0  0
    0.9015   -0.4410    1.5992 C   0  0  0  0  0  0  0  0  0  0  0  0
    0.6090   -1.4846    2.2444 O   0  0  0  0  0  0  0  0  0  0  0  0
    2.1285   -0.4028    0.8409 N   0  0  0  0  0  0  0  0  0  0  0  0
    3.0455   -1.5323    0.8088 C   0  0  0  0  0  0  0  0  0  0  0  0
    4.2166   -1.0938   -0.0598 C   0  0  0  0  0  0  0  0  0  0  0  0
    4.1350    0.4277   -0.1166 C   0  0  0  0  0  0  0  0  0  0  0  0
    2.6726    0.7705    0.1682 C   0  0  1  0  0  0  0  0  0  0  0  0
    1.9433    1.0166   -1.0869 C   0  0  0  0  0  0  0  0  0  0  0  0
    1.3742    1.2099   -2.0758 N   0  0  0  0  0  0  0  0  0  0  0  0
   -3.7641    1.1483   -0.3048 C   0  0  0  0  0  0  0  0  0  0  0  0
   -4.5624    1.1249    0.6714 O   0  0  0  0  0  0  0  0  0  0  0  0
   -3.5992    2.3289   -1.0252 O   0  0  0  0  0  0  0  0  0  0  0  0
   -2.5214    0.5766   -2.7174 H   0  0  0  0  0  0  0  0  0  0  0  0
   -2.3998   -1.1999   -2.4616 H   0  0  0  0  0  0  0  0  0  0  0  0
   -4.0182   -0.4126   -2.5398 H   0  0  0  0  0  0  0  0  0  0  0  0
   -4.4674   -1.4376   -0.3336 H   0  0  0  0  0  0  0  0  0  0  0  0
   -2.9263   -2.1024   -0.2355 H   0  0  0  0  0  0  0  0  0  0  0  0
   -1.0686    1.0271   -0.7392 H   0  0  0  0  0  0  0  0  0  0  0  0
   -0.8672   -0.7415   -0.4721 H   0  0  0  0  0  0  0  0  0  0  0  0
   -1.7120   -0.4791    1.7630 H   0  0  0  0  0  0  0  0  0  0  0  0
    0.3164    1.6075    1.0895 H   0  0  0  0  0  0  0  0  0  0  0  0
   -0.0812    1.0759    2.7324 H   0  0  0  0  0  0  0  0  0  0  0  0
    3.3947   -1.7597    1.8396 H   0  0  0  0  0  0  0  0  0  0  0  0
    2.5457   -2.4245    0.3730 H   0  0  0  0  0  0  0  0  0  0  0  0
    4.0970   -1.5087   -1.0849 H   0  0  0  0  0  0  0  0  0  0  0  0
    5.1873   -1.4331    0.3628 H   0  0  0  0  0  0  0  0  0  0  0  0
    4.7728    0.8532    0.6896 H   0  0  0  0  0  0  0  0  0  0  0  0
    4.4982    0.8184   -1.0936 H   0  0  0  0  0  0  0  0  0  0  0  0
    2.6183    1.6655    0.8248 H   0  0  0  0  0  0  0  0  0  0  0  0
   -4.1266    3.1606   -0.7882 H   0  0  0  0  0  0  0  0  0  0  0  0
  1  2  1  0
  2  3  1  0
  2  4  1  0
  4  5  1  0
  5  6  1  0
  6  7  1  0
  7  8  2  0
  7  9  1  0
  9 10  1  0
 10 11  1  0
 11 12  1  0
 12 13  1  0
 13 14  1  0
 14 15  3  0
  2 16  1  0
 16 17  2  0
 16 18  1  0
 13  9  1  0
  1 19  1  0
  1 20  1  0
  1 21  1  0
  3 22  1  0
  3 23  1  0
  4 24  1  0
  4 25  1  0
  5 26  1  0
  6 27  1  0
  6 28  1  0
 10 29  1  0
 10 30  1  0
 11 31  1  0
 11 32  1  0
 12 33  1  0
 12 34  1  0
 13 35  1  1
 18 36  1  0
M  END
$$$$
