
     RDKit          3D

 77 80  0  0  0  0  0  0  0  0999 V2000
    8.4473    2.1915    2.1068 C   0  0  0  0  0  0  0  0  0  0  0  0
    7.3717    3.5781    1.8059 S   0  0  0  0  0  0  0  0  0  0  0  0
    8.0106    4.5411    0.8452 O   0  0  0  0  0  0  0  0  0  0  0  0
    7.1313    4.2863    3.1092 O   0  0  0  0  0  0  0  0  0  0  0  0
    5.8489    3.0307    1.1771 N   0  0  0  0  0  0  0  0  0  0  0  0
    5.6830    2.3378   -0.0740 C   0  0  0  0  0  0  0  0  0  0  0  0
    6.7301    2.2179   -1.0067 C   0  0  0  0  0  0  0  0  0  0  0  0
    6.5340    1.5235   -2.2025 C   0  0  0  0  0  0  0  0  0  0  0  0
    5.2928    0.9535   -2.4895 C   0  0  0  0  0  0  0  0  0  0  0  0
    4.2271    1.0874   -1.5901 C   0  0  0  0  0  0  0  0  0  0  0  0
    2.9638    0.4746   -1.8987 N   0  0  0  0  0  0  0  0  0  0  0  0
    1.6939    1.0014   -1.4853 C   0  0  0  0  0  0  0  0  0  0  0  0
    1.5923    2.1923   -1.0840 O   0  0  0  0  0  0  0  0  0  0  0  0
    0.4641    0.1504   -1.5848 C   0  0  0  0  0  0  0  0  0  0  0  0
    0.6563   -1.1181   -0.8508 N   0  0  0  0  0  0  0  0  0  0  0  0
    0.6068   -0.9328    0.6262 C   0  0  0  0  0  0  0  0  0  0  0  0
   -0.6870   -1.4541    1.2783 C   0  0  0  0  0  0  0  0  0  0  0  0
   -1.8282   -1.2503    0.3728 N   0  0  0  0  0  0  0  0  0  0  0  0
   -2.9773   -0.4412    0.7273 C   0  0  0  0  0  0  0  0  0  0  0  0
   -3.9461   -0.3778   -0.0751 O   0  0  0  0  0  0  0  0  0  0  0  0
   -3.0440    0.2973    2.0503 C   0  0  0  0  0  0  0  0  0  0  0  0
   -4.2411    1.2610    2.2918 C   0  0  2  0  0  0  0  0  0  0  0  0
   -5.5537    0.6315    2.1033 N   0  0  0  0  0  0  0  0  0  0  0  0
   -4.1366    2.6319    1.5770 C   0  0  0  0  0  0  0  0  0  0  0  0
   -4.0118    2.5640    0.0730 C   0  0  0  0  0  0  0  0  0  0  0  0
   -5.1658    2.5051   -0.7282 C   0  0  0  0  0  0  0  0  0  0  0  0
   -5.0576    2.4291   -2.1197 C   0  0  0  0  0  0  0  0  0  0  0  0
   -3.7992    2.4246   -2.7252 C   0  0  0  0  0  0  0  0  0  0  0  0
   -2.6463    2.5040   -1.9411 C   0  0  0  0  0  0  0  0  0  0  0  0
   -2.7464    2.5758   -0.5476 C   0  0  0  0  0  0  0  0  0  0  0  0
   -1.6119    2.6583    0.1927 F   0  0  0  0  0  0  0  0  0  0  0  0
   -1.7348   -1.8398   -0.9774 C   0  0  2  0  0  0  0  0  0  0  0  0
   -2.6656   -3.0655   -1.1383 C   0  0  0  0  0  0  0  0  0  0  0  0
   -2.4927   -4.1030   -0.0544 C   0  0  0  0  0  0  0  0  0  0  0  0
   -3.1829   -3.9772    1.1641 C   0  0  0  0  0  0  0  0  0  0  0  0
   -3.0042   -4.9237    2.1772 C   0  0  0  0  0  0  0  0  0  0  0  0
   -2.1422   -6.0056    1.9808 C   0  0  0  0  0  0  0  0  0  0  0  0
   -1.4601   -6.1446    0.7692 C   0  0  0  0  0  0  0  0  0  0  0  0
   -1.6351   -5.1998   -0.2464 C   0  0  0  0  0  0  0  0  0  0  0  0
   -0.2633   -2.1732   -1.3276 C   0  0  0  0  0  0  0  0  0  0  0  0
    4.4352    1.7670   -0.3760 C   0  0  0  0  0  0  0  0  0  0  0  0
    7.9516    1.4846    2.8035 H   0  0  0  0  0  0  0  0  0  0  0  0
    8.6727    1.6683    1.1559 H   0  0  0  0  0  0  0  0  0  0  0  0
    9.3948    2.5494    2.5596 H   0  0  0  0  0  0  0  0  0  0  0  0
    5.0149    3.1669    1.7914 H   0  0  0  0  0  0  0  0  0  0  0  0
    7.7004    2.6532   -0.8242 H   0  0  0  0  0  0  0  0  0  0  0  0
    7.3474    1.4276   -2.9102 H   0  0  0  0  0  0  0  0  0  0  0  0
    5.1565    0.4169   -3.4201 H   0  0  0  0  0  0  0  0  0  0  0  0
    2.9624   -0.3724   -2.5114 H   0  0  0  0  0  0  0  0  0  0  0  0
   -0.4164    0.7005   -1.1886 H   0  0  0  0  0  0  0  0  0  0  0  0
    0.2837   -0.0410   -2.6654 H   0  0  0  0  0  0  0  0  0  0  0  0
    1.4683   -1.4715    1.0750 H   0  0  0  0  0  0  0  0  0  0  0  0
    0.7340    0.1367    0.9081 H   0  0  0  0  0  0  0  0  0  0  0  0
   -0.5787   -2.5421    1.4777 H   0  0  0  0  0  0  0  0  0  0  0  0
   -0.8221   -0.9757    2.2669 H   0  0  0  0  0  0  0  0  0  0  0  0
   -3.0598   -0.4692    2.8552 H   0  0  0  0  0  0  0  0  0  0  0  0
   -2.1105    0.8863    2.1746 H   0  0  0  0  0  0  0  0  0  0  0  0
   -4.1843    1.5132    3.3747 H   0  0  0  0  0  0  0  0  0  0  0  0
   -5.7927    0.5449    1.0930 H   0  0  0  0  0  0  0  0  0  0  0  0
   -5.5403   -0.3297    2.5156 H   0  0  0  0  0  0  0  0  0  0  0  0
   -3.2681    3.1865    1.9949 H   0  0  0  0  0  0  0  0  0  0  0  0
   -5.0298    3.2398    1.8411 H   0  0  0  0  0  0  0  0  0  0  0  0
   -6.1495    2.5176   -0.2758 H   0  0  0  0  0  0  0  0  0  0  0  0
   -5.9505    2.3765   -2.7291 H   0  0  0  0  0  0  0  0  0  0  0  0
   -3.7175    2.3672   -3.8028 H   0  0  0  0  0  0  0  0  0  0  0  0
   -1.6736    2.5125   -2.4157 H   0  0  0  0  0  0  0  0  0  0  0  0
   -2.0660   -1.0777   -1.7182 H   0  0  0  0  0  0  0  0  0  0  0  0
   -3.7231   -2.7253   -1.1452 H   0  0  0  0  0  0  0  0  0  0  0  0
   -2.4929   -3.5272   -2.1352 H   0  0  0  0  0  0  0  0  0  0  0  0
   -3.8556   -3.1456    1.3312 H   0  0  0  0  0  0  0  0  0  0  0  0
   -3.5344   -4.8183    3.1149 H   0  0  0  0  0  0  0  0  0  0  0  0
   -2.0047   -6.7374    2.7662 H   0  0  0  0  0  0  0  0  0  0  0  0
   -0.7950   -6.9848    0.6170 H   0  0  0  0  0  0  0  0  0  0  0  0
   -1.1004   -5.3217   -1.1801 H   0  0  0  0  0  0  0  0  0  0  0  0
    0.0426   -3.1339   -0.8639 H   0  0  0  0  0  0  0  0  0  0  0  0
   -0.1560   -2.3137   -2.4258 H   0  0  0  0  0  0  0  0  0  0  0  0
    3.6374    1.8293    0.3526 H   0  0  0  0  0  0  0  0  0  0  0  0
  1  2  1  0
  2  3  2  0
  2  4  2  0
  2  5  1  0
  5  6  1  0
  6  7  2  0
  7  8  1  0
  8  9  2  0
  9 10  1  0
 10 11  1  0
 11 12  1  0
 12 13  2  0
 12 14  1  0
 14 15  1  0
 15 16  1  0
 16 17  1  0
 17 18  1  0
 18 19  1  0
 19 20  2  0
 19 21  1  0
 21 22  1  0
 22 23  1  0
 22 24  1  0
 24 25  1  0
 25 26  2  0
 26 27  1  0
 27 28  2  0
 28 29  1  0
 29 30  2  0
 30 31  1  0
 18 32  1  0
 32 33  1  0
 33 34  1  0
 34 35  2  0
 35 36  1  0
 36 37  2  0
 37 38  1  0
 38 39  2  0
 32 40  1  0
 10 41  2  0
 41  6  1  0
 40 15  1  0
 30 25  1  0
 39 34  1  0
  1 42  1  0
  1 43  1  0
  1 44  1  0
  5 45  1  0
  7 46  1  0
  8 47  1  0
  9 48  1  0
 11 49  1  0
 14 50  1  0
 14 51  1  0
 16 52  1  0
 16 53  1  0
 17 54  1  0
 17 55  1  0
 21 56  1  0
 21 57  1  0
 22 58  1  1
 23 59  1  0
 23 60  1  0
 24 61  1  0
 24 62  1  0
 26 63  1  0
 27 64  1  0
 28 65  1  0
 29 66  1  0
 32 67  1  6
 33 68  1  0
 33 69  1  0
 35 70  1  0
 36 71  1  0
 37 72  1  0
 38 73  1  0
 39 74  1  0
 40 75  1  0
 40 76  1  0
 41 77  1  0
M  END
$$$$
