
     RDKit          3D

 56 58  0  0  0  0  0  0  0  0999 V2000
   -2.1115    2.2092    0.8976 N   0  0  0  0  0  0  0  0  0  0  0  0
   -1.7569    1.3396   -0.2316 C   0  0  2  0  0  0  0  0  0  0  0  0
   -2.8032    1.4729   -1.3195 C   0  0  0  0  0  0  0  0  0  0  0  0
   -2.4299    1.8547   -2.4623 O   0  0  0  0  0  0  0  0  0  0  0  0
   -4.1847    1.1138   -1.1211 N   0  0  0  0  0  0  0  0  0  0  0  0
   -5.0540    0.7596   -2.2305 C   0  0  0  0  0  0  0  0  0  0  0  0
   -6.3816    0.3626   -1.6019 C   0  0  0  0  0  0  0  0  0  0  0  0
   -6.3703    0.9758   -0.2037 C   0  0  0  0  0  0  0  0  0  0  0  0
   -7.0271    2.1958   -0.2225 F   0  0  0  0  0  0  0  0  0  0  0  0
   -6.9859    0.1366    0.7100 F   0  0  0  0  0  0  0  0  0  0  0  0
   -4.8988    1.1810    0.1446 C   0  0  0  0  0  0  0  0  0  0  0  0
   -1.5364   -0.1479    0.1920 C   0  0  1  0  0  0  0  0  0  0  0  0
   -1.3177   -1.0602   -1.0490 C   0  0  0  0  0  0  0  0  0  0  0  0
   -0.4915   -2.3018   -0.7039 C   0  0  0  0  0  0  0  0  0  0  0  0
    0.9458   -1.9098   -0.2732 C   0  0  2  0  0  0  0  0  0  0  0  0
    1.5723   -3.0008    0.5010 N   0  0  0  0  0  0  0  0  0  0  0  0
    3.2706   -3.1415    0.1366 S   0  0  0  0  0  0  0  0  0  0  0  0
    3.4481   -3.5342   -1.3043 O   0  0  0  0  0  0  0  0  0  0  0  0
    3.8673   -4.2209    0.9956 O   0  0  0  0  0  0  0  0  0  0  0  0
    4.1179   -1.6281    0.4487 C   0  0  0  0  0  0  0  0  0  0  0  0
    4.5486   -1.3203    1.7451 C   0  0  0  0  0  0  0  0  0  0  0  0
    5.1897   -0.1056    2.0033 C   0  0  0  0  0  0  0  0  0  0  0  0
    5.4067    0.8187    0.9742 C   0  0  0  0  0  0  0  0  0  0  0  0
    6.0518    2.0249    1.2917 O   0  0  0  0  0  0  0  0  0  0  0  0
    6.3425    3.0714    0.3678 C   0  0  0  0  0  0  0  0  0  0  0  0
    6.9784    4.0978    1.0389 F   0  0  0  0  0  0  0  0  0  0  0  0
    7.1787    2.6067   -0.6315 F   0  0  0  0  0  0  0  0  0  0  0  0
    5.1715    3.5582   -0.1851 F   0  0  0  0  0  0  0  0  0  0  0  0
    4.9716    0.5072   -0.3290 C   0  0  0  0  0  0  0  0  0  0  0  0
    4.3317   -0.7087   -0.5866 C   0  0  0  0  0  0  0  0  0  0  0  0
    0.9654   -0.5930    0.5518 C   0  0  0  0  0  0  0  0  0  0  0  0
   -0.3810   -0.2963    1.2240 C   0  0  0  0  0  0  0  0  0  0  0  0
   -2.5584    1.6578    1.6655 H   0  0  0  0  0  0  0  0  0  0  0  0
   -1.2421    2.6373    1.2911 H   0  0  0  0  0  0  0  0  0  0  0  0
   -0.7932    1.7051   -0.6579 H   0  0  0  0  0  0  0  0  0  0  0  0
   -4.6227   -0.0890   -2.8049 H   0  0  0  0  0  0  0  0  0  0  0  0
   -5.1879    1.6396   -2.8967 H   0  0  0  0  0  0  0  0  0  0  0  0
   -6.4350   -0.7461   -1.5251 H   0  0  0  0  0  0  0  0  0  0  0  0
   -7.2418    0.7261   -2.2051 H   0  0  0  0  0  0  0  0  0  0  0  0
   -4.5491    0.3756    0.8219 H   0  0  0  0  0  0  0  0  0  0  0  0
   -4.7524    2.1732    0.6225 H   0  0  0  0  0  0  0  0  0  0  0  0
   -2.4575   -0.5069    0.6977 H   0  0  0  0  0  0  0  0  0  0  0  0
   -0.7886   -0.5047   -1.8552 H   0  0  0  0  0  0  0  0  0  0  0  0
   -2.3032   -1.3785   -1.4540 H   0  0  0  0  0  0  0  0  0  0  0  0
   -1.0051   -2.8594    0.1109 H   0  0  0  0  0  0  0  0  0  0  0  0
   -0.4421   -2.9711   -1.5904 H   0  0  0  0  0  0  0  0  0  0  0  0
    1.5119   -1.7257   -1.2149 H   0  0  0  0  0  0  0  0  0  0  0  0
    1.1550   -3.9203    0.2266 H   0  0  0  0  0  0  0  0  0  0  0  0
    4.3793   -2.0153    2.5577 H   0  0  0  0  0  0  0  0  0  0  0  0
    5.5159    0.1217    3.0103 H   0  0  0  0  0  0  0  0  0  0  0  0
    5.1178    1.1954   -1.1492 H   0  0  0  0  0  0  0  0  0  0  0  0
    3.9944   -0.9268   -1.5917 H   0  0  0  0  0  0  0  0  0  0  0  0
    1.2245    0.2572   -0.1167 H   0  0  0  0  0  0  0  0  0  0  0  0
    1.7463   -0.6324    1.3396 H   0  0  0  0  0  0  0  0  0  0  0  0
   -0.2778    0.6055    1.8611 H   0  0  0  0  0  0  0  0  0  0  0  0
   -0.6163   -1.1356    1.9155 H   0  0  0  0  0  0  0  0  0  0  0  0
  1  2  1  0
  2  3  1  0
  3  4  2  0
  3  5  1  0
  5  6  1  0
  6  7  1  0
  7  8  1  0
  8  9  1  0
  8 10  1  0
  8 11  1  0
  2 12  1  0
 12 13  1  0
 13 14  1  0
 14 15  1  0
 15 16  1  0
 16 17  1  0
 17 18  2  0
 17 19  2  0
 17 20  1  0
 20 21  2  0
 21 22  1  0
 22 23  2  0
 23 24  1  0
 24 25  1  0
 25 26  1  0
 25 27  1  0
 25 28  1  0
 23 29  1  0
 29 30  2  0
 15 31  1  0
 31 32  1  0
 11  5  1  0
 32 12  1  0
 30 20  1  0
  1 33  1  0
  1 34  1  0
  2 35  1  6
  6 36  1  0
  6 37  1  0
  7 38  1  0
  7 39  1  0
 11 40  1  0
 11 41  1  0
 12 42  1  1
 13 43  1  0
 13 44  1  0
 14 45  1  0
 14 46  1  0
 15 47  1  6
 16 48  1  0
 21 49  1  0
 22 50  1  0
 29 51  1  0
 30 52  1  0
 31 53  1  0
 31 54  1  0
 32 55  1  0
 32 56  1  0
M  END
$$$$
