
     RDKit          3D

 56 58  0  0  0  0  0  0  0  0999 V2000
    0.6878    0.0000    0.0000 Cl  0  0  0  0  0  0  0  0  0  0  0  0
   -5.6202   -2.5238   -0.4222 N   0  0  0  0  0  0  0  0  0  0  0  0
   -5.7663   -1.4008   -0.1829 C   0  0  0  0  0  0  0  0  0  0  0  0
   -5.9609    0.0271    0.1163 C   0  0  2  0  0  0  0  0  0  0  0  0
   -6.8118    0.6757   -0.9747 C   0  0  0  0  0  0  0  0  0  0  0  0
   -5.8131    1.2924   -1.9440 C   0  0  0  0  0  0  0  0  0  0  0  0
   -4.5762    1.5802   -1.1062 C   0  0  0  0  0  0  0  0  0  0  0  0
   -4.6847    0.7352    0.0775 N   0  0  0  0  0  0  0  0  0  0  0  0
   -3.8211    0.9480    1.2166 C   0  0  0  0  0  0  0  0  0  0  0  0
   -3.2424    2.0623    1.3409 O   0  0  0  0  0  0  0  0  0  0  0  0
   -3.4928   -0.1297    2.2306 C   0  0  1  0  0  0  0  0  0  0  0  0
   -4.6990   -0.5859    2.9271 N   0  0  0  0  0  0  0  0  0  0  0  0
   -2.7069   -1.3047    1.6087 C   0  0  0  0  0  0  0  0  0  0  0  0
   -1.4051   -0.8474    0.9999 C   0  0  0  0  0  0  0  0  0  0  0  0
   -0.2861   -0.6177    1.8130 C   0  0  0  0  0  0  0  0  0  0  0  0
    0.9104   -0.1569    1.2560 C   0  0  0  0  0  0  0  0  0  0  0  0
    1.0064    0.0891   -0.1260 C   0  0  0  0  0  0  0  0  0  0  0  0
    2.2660    0.5801   -0.7328 C   0  0  0  0  0  0  0  0  0  0  0  0
    3.4661    0.8423   -0.0979 C   0  0  0  0  0  0  0  0  0  0  0  0
    4.3109    1.2609   -1.0548 N   0  0  0  0  0  0  0  0  0  0  0  0
    5.7219    1.5891   -0.8884 C   0  0  0  0  0  0  0  0  0  0  0  0
    6.5499    0.3345   -0.9527 C   0  0  0  0  0  0  0  0  0  0  0  0
    6.8521   -0.3677    0.2263 C   0  0  0  0  0  0  0  0  0  0  0  0
    7.5873   -1.5556    0.1711 C   0  0  0  0  0  0  0  0  0  0  0  0
    8.0163   -2.0570   -1.0603 C   0  0  0  0  0  0  0  0  0  0  0  0
    7.7066   -1.3742   -2.2394 C   0  0  0  0  0  0  0  0  0  0  0  0
    6.9710   -0.1851   -2.1910 C   0  0  0  0  0  0  0  0  0  0  0  0
    6.6673    0.4548   -3.3487 F   0  0  0  0  0  0  0  0  0  0  0  0
    3.6778    1.2427   -2.2159 N   0  0  0  0  0  0  0  0  0  0  0  0
    2.4272    0.8379   -2.0490 N   0  0  0  0  0  0  0  0  0  0  0  0
   -0.1209   -0.1354   -0.9356 C   0  0  0  0  0  0  0  0  0  0  0  0
   -1.3157   -0.5973   -0.3775 C   0  0  0  0  0  0  0  0  0  0  0  0
   -0.6878    0.0000    0.0000 H   0  0  0  0  0  0  0  0  0  0  0  0
   -6.4600    0.1518    1.1007 H   0  0  0  0  0  0  0  0  0  0  0  0
   -7.4939   -0.0377   -1.4895 H   0  0  0  0  0  0  0  0  0  0  0  0
   -7.4262    1.4869   -0.5247 H   0  0  0  0  0  0  0  0  0  0  0  0
   -6.2165    2.2169   -2.4113 H   0  0  0  0  0  0  0  0  0  0  0  0
   -5.5635    0.5549   -2.7385 H   0  0  0  0  0  0  0  0  0  0  0  0
   -4.5682    2.6524   -0.8109 H   0  0  0  0  0  0  0  0  0  0  0  0
   -3.6493    1.3383   -1.6694 H   0  0  0  0  0  0  0  0  0  0  0  0
   -2.8260    0.3338    2.9955 H   0  0  0  0  0  0  0  0  0  0  0  0
   -5.1212   -1.3989    2.4257 H   0  0  0  0  0  0  0  0  0  0  0  0
   -4.4193   -0.9464    3.8687 H   0  0  0  0  0  0  0  0  0  0  0  0
   -3.3173   -1.8221    0.8429 H   0  0  0  0  0  0  0  0  0  0  0  0
   -2.4917   -2.0557    2.4002 H   0  0  0  0  0  0  0  0  0  0  0  0
   -0.3420   -0.7920    2.8805 H   0  0  0  0  0  0  0  0  0  0  0  0
    1.7533    0.0085    1.9125 H   0  0  0  0  0  0  0  0  0  0  0  0
    3.7161    0.7305    0.9486 H   0  0  0  0  0  0  0  0  0  0  0  0
    5.8738    2.1053    0.0851 H   0  0  0  0  0  0  0  0  0  0  0  0
    6.0369    2.3014   -1.6815 H   0  0  0  0  0  0  0  0  0  0  0  0
    6.5167    0.0032    1.1870 H   0  0  0  0  0  0  0  0  0  0  0  0
    7.8209   -2.0896    1.0831 H   0  0  0  0  0  0  0  0  0  0  0  0
    8.5841   -2.9776   -1.1013 H   0  0  0  0  0  0  0  0  0  0  0  0
    8.0336   -1.7698   -3.1924 H   0  0  0  0  0  0  0  0  0  0  0  0
   -0.0813    0.0487   -2.0019 H   0  0  0  0  0  0  0  0  0  0  0  0
   -2.1733   -0.7560   -1.0197 H   0  0  0  0  0  0  0  0  0  0  0  0
  2  3  3  0
  3  4  1  0
  4  5  1  0
  5  6  1  0
  6  7  1  0
  7  8  1  0
  8  9  1  0
  9 10  2  0
  9 11  1  0
 11 12  1  0
 11 13  1  0
 13 14  1  0
 14 15  2  0
 15 16  1  0
 16 17  2  0
 17 18  1  0
 18 19  2  0
 19 20  1  0
 20 21  1  0
 21 22  1  0
 22 23  2  0
 23 24  1  0
 24 25  2  0
 25 26  1  0
 26 27  2  0
 27 28  1  0
 20 29  1  0
 29 30  2  0
 17 31  1  0
 31 32  2  0
  8  4  1  0
 32 14  1  0
 30 18  1  0
 27 22  1  0
  1 33  1  0
  4 34  1  1
  5 35  1  0
  5 36  1  0
  6 37  1  0
  6 38  1  0
  7 39  1  0
  7 40  1  0
 11 41  1  1
 12 42  1  0
 12 43  1  0
 13 44  1  0
 13 45  1  0
 15 46  1  0
 16 47  1  0
 19 48  1  0
 21 49  1  0
 21 50  1  0
 23 51  1  0
 24 52  1  0
 25 53  1  0
 26 54  1  0
 31 55  1  0
 32 56  1  0
M  END
$$$$
