
     RDKit          3D

 52 55  0  0  0  0  0  0  0  0999 V2000
    2.8245   -0.9381   -1.8668 N   0  0  0  0  0  0  0  0  0  0  0  0
    2.6103    0.3587   -1.2159 C   0  0  1  0  0  0  0  0  0  0  0  0
    1.1049    0.7192   -1.1887 C   0  0  0  0  0  0  0  0  0  0  0  0
    0.2193   -0.2537   -0.4313 C   0  0  0  0  0  0  0  0  0  0  0  0
    0.6388   -1.4246   -0.2176 O   0  0  0  0  0  0  0  0  0  0  0  0
   -1.1180    0.1136   -0.0028 N   0  0  0  0  0  0  0  0  0  0  0  0
   -1.5854    1.5066   -0.2226 C   0  0  0  0  0  0  0  0  0  0  0  0
   -3.0918    1.7106    0.0049 C   0  0  0  0  0  0  0  0  0  0  0  0
   -3.5272    0.9549    1.1629 N   0  0  0  0  0  0  0  0  0  0  0  0
   -4.5828    1.2125    1.9096 N   0  0  0  0  0  0  0  0  0  0  0  0
   -4.6684    0.1658    2.7597 C   0  0  0  0  0  0  0  0  0  0  0  0
   -5.7712    0.0019    3.7537 C   0  0  0  0  0  0  0  0  0  0  0  0
   -6.1882    1.2411    4.2043 F   0  0  0  0  0  0  0  0  0  0  0  0
   -5.3281   -0.7439    4.8307 F   0  0  0  0  0  0  0  0  0  0  0  0
   -6.8343   -0.6475    3.1556 F   0  0  0  0  0  0  0  0  0  0  0  0
   -3.7215   -0.7775    2.5340 N   0  0  0  0  0  0  0  0  0  0  0  0
   -3.0247   -0.2240    1.5228 C   0  0  0  0  0  0  0  0  0  0  0  0
   -1.9005   -0.8778    0.7812 C   0  0  0  0  0  0  0  0  0  0  0  0
   -2.4338   -2.0115   -0.1185 C   0  0  0  0  0  0  0  0  0  0  0  0
   -3.2655   -1.4970   -1.2035 N   0  0  0  0  0  0  0  0  0  0  0  0
   -4.6015   -1.3617   -1.2026 C   0  0  0  0  0  0  0  0  0  0  0  0
   -5.0363   -0.8380   -2.3647 N   0  0  0  0  0  0  0  0  0  0  0  0
   -3.8870   -0.6680   -3.0562 C   0  0  0  0  0  0  0  0  0  0  0  0
   -2.8027   -1.0624   -2.3606 N   0  0  0  0  0  0  0  0  0  0  0  0
    3.2163    0.3707    0.2062 C   0  0  0  0  0  0  0  0  0  0  0  0
    4.7244    0.3233    0.1750 C   0  0  0  0  0  0  0  0  0  0  0  0
    5.3963   -0.8961    0.3691 C   0  0  0  0  0  0  0  0  0  0  0  0
    6.7927   -0.9493    0.3192 C   0  0  0  0  0  0  0  0  0  0  0  0
    7.4309   -2.1307    0.5087 F   0  0  0  0  0  0  0  0  0  0  0  0
    7.5293    0.2129    0.0713 C   0  0  0  0  0  0  0  0  0  0  0  0
    8.8835    0.1624    0.0219 F   0  0  0  0  0  0  0  0  0  0  0  0
    6.8696    1.4286   -0.1289 C   0  0  0  0  0  0  0  0  0  0  0  0
    5.4729    1.4877   -0.0805 C   0  0  0  0  0  0  0  0  0  0  0  0
    4.8519    2.6775   -0.2830 F   0  0  0  0  0  0  0  0  0  0  0  0
    3.8487   -1.0607   -2.0369 H   0  0  0  0  0  0  0  0  0  0  0  0
    2.3854   -0.9097   -2.8158 H   0  0  0  0  0  0  0  0  0  0  0  0
    3.1167    1.1473   -1.8191 H   0  0  0  0  0  0  0  0  0  0  0  0
    1.0131    1.7320   -0.7431 H   0  0  0  0  0  0  0  0  0  0  0  0
    0.7312    0.7867   -2.2330 H   0  0  0  0  0  0  0  0  0  0  0  0
   -1.3685    1.8175   -1.2672 H   0  0  0  0  0  0  0  0  0  0  0  0
   -1.0294    2.1803    0.4647 H   0  0  0  0  0  0  0  0  0  0  0  0
   -3.6575    1.3697   -0.8864 H   0  0  0  0  0  0  0  0  0  0  0  0
   -3.3034    2.7908    0.1579 H   0  0  0  0  0  0  0  0  0  0  0  0
   -1.2385   -1.3293    1.5529 H   0  0  0  0  0  0  0  0  0  0  0  0
   -3.0205   -2.7313    0.4942 H   0  0  0  0  0  0  0  0  0  0  0  0
   -1.5883   -2.5849   -0.5520 H   0  0  0  0  0  0  0  0  0  0  0  0
   -5.2469   -1.6293   -0.3759 H   0  0  0  0  0  0  0  0  0  0  0  0
   -3.8424   -0.2571   -4.0556 H   0  0  0  0  0  0  0  0  0  0  0  0
    2.9010    1.2941    0.7398 H   0  0  0  0  0  0  0  0  0  0  0  0
    2.8233   -0.4839    0.7979 H   0  0  0  0  0  0  0  0  0  0  0  0
    4.8378   -1.8053    0.5546 H   0  0  0  0  0  0  0  0  0  0  0  0
    7.4414    2.3268   -0.3238 H   0  0  0  0  0  0  0  0  0  0  0  0
  1  2  1  0
  2  3  1  0
  3  4  1  0
  4  5  2  0
  4  6  1  0
  6  7  1  0
  7  8  1  0
  8  9  1  0
  9 10  1  0
 10 11  2  0
 11 12  1  0
 12 13  1  0
 12 14  1  0
 12 15  1  0
 11 16  1  0
 16 17  2  0
 17 18  1  0
 18 19  1  0
 19 20  1  0
 20 21  1  0
 21 22  2  0
 22 23  1  0
 23 24  2  0
  2 25  1  0
 25 26  1  0
 26 27  2  0
 27 28  1  0
 28 29  1  0
 28 30  2  0
 30 31  1  0
 30 32  1  0
 32 33  2  0
 33 34  1  0
 18  6  1  0
 24 20  1  0
 33 26  1  0
 17  9  1  0
  1 35  1  0
  1 36  1  0
  2 37  1  6
  3 38  1  0
  3 39  1  0
  7 40  1  0
  7 41  1  0
  8 42  1  0
  8 43  1  0
 18 44  1  0
 19 45  1  0
 19 46  1  0
 21 47  1  0
 23 48  1  0
 25 49  1  0
 25 50  1  0
 27 51  1  0
 32 52  1  0
M  END
$$$$
