
     RDKit          3D

 61 63  0  0  0  0  0  0  0  0999 V2000
   -5.5082    3.3994   -1.5631 C   0  0  0  0  0  0  0  0  0  0  0  0
   -5.6241    2.2981   -2.4584 O   0  0  0  0  0  0  0  0  0  0  0  0
   -5.1516    1.0027   -2.1932 C   0  0  0  0  0  0  0  0  0  0  0  0
   -4.5108    0.6750   -0.9854 C   0  0  0  0  0  0  0  0  0  0  0  0
   -4.0363   -0.6250   -0.7451 C   0  0  0  0  0  0  0  0  0  0  0  0
   -3.2579   -0.8739    0.5288 C   0  0  0  0  0  0  0  0  0  0  0  0
   -2.0344   -0.0610    0.5434 N   0  0  0  0  0  0  0  0  0  0  0  0
   -1.9090    1.1066    1.4135 C   0  0  0  0  0  0  0  0  0  0  0  0
   -0.5612    1.0716    2.1337 C   0  0  0  0  0  0  0  0  0  0  0  0
    0.5668    0.9303    1.1900 N   0  0  0  0  0  0  0  0  0  0  0  0
    1.8781    1.3668    1.6281 C   0  0  0  0  0  0  0  0  0  0  0  0
    2.0404    1.7307    2.8253 O   0  0  0  0  0  0  0  0  0  0  0  0
    3.0700    1.4502    0.6978 C   0  0  0  0  0  0  0  0  0  0  0  0
    4.1552    0.3728    0.9548 C   0  0  2  0  0  0  0  0  0  0  0  0
    3.6520   -0.9832    0.7193 N   0  0  0  0  0  0  0  0  0  0  0  0
    4.7730    0.4750    2.3642 C   0  0  0  0  0  0  0  0  0  0  0  0
    6.0174   -0.3710    2.4785 C   0  0  0  0  0  0  0  0  0  0  0  0
    5.9321   -1.6860    2.9678 C   0  0  0  0  0  0  0  0  0  0  0  0
    7.0766   -2.4853    3.0493 C   0  0  0  0  0  0  0  0  0  0  0  0
    6.9839   -3.7513    3.5264 F   0  0  0  0  0  0  0  0  0  0  0  0
    8.3135   -1.9812    2.6360 C   0  0  0  0  0  0  0  0  0  0  0  0
    9.4238   -2.7558    2.7134 F   0  0  0  0  0  0  0  0  0  0  0  0
    8.4057   -0.6788    2.1376 C   0  0  0  0  0  0  0  0  0  0  0  0
    7.2641    0.1251    2.0535 C   0  0  0  0  0  0  0  0  0  0  0  0
    7.3740    1.3831    1.5557 F   0  0  0  0  0  0  0  0  0  0  0  0
    0.3648    0.3852   -0.1685 C   0  0  0  0  0  0  0  0  0  0  0  0
   -0.9113   -0.3982   -0.2835 C   0  0  0  0  0  0  0  0  0  0  0  0
   -0.9944   -1.3307   -1.1282 O   0  0  0  0  0  0  0  0  0  0  0  0
   -4.2424   -1.6262   -1.7246 C   0  0  0  0  0  0  0  0  0  0  0  0
   -3.8406   -2.9870   -1.5123 N   0  0  0  0  0  0  0  0  0  0  0  0
   -4.2528   -3.6087   -0.5115 O   0  0  0  0  0  0  0  0  0  0  0  0
   -3.2596   -3.6933   -2.5400 O   0  0  0  0  0  0  0  0  0  0  0  0
   -4.8676   -1.2893   -2.9341 C   0  0  0  0  0  0  0  0  0  0  0  0
   -5.3250    0.0185   -3.1738 C   0  0  0  0  0  0  0  0  0  0  0  0
   -5.9606    0.3782   -4.3732 O   0  0  0  0  0  0  0  0  0  0  0  0
   -6.2040   -0.5122   -5.4574 C   0  0  0  0  0  0  0  0  0  0  0  0
   -6.0454    3.1802   -0.6162 H   0  0  0  0  0  0  0  0  0  0  0  0
   -4.4381    3.6124   -1.3561 H   0  0  0  0  0  0  0  0  0  0  0  0
   -5.9645    4.2959   -2.0305 H   0  0  0  0  0  0  0  0  0  0  0  0
   -4.3605    1.4335   -0.2291 H   0  0  0  0  0  0  0  0  0  0  0  0
   -3.9112   -0.6184    1.3907 H   0  0  0  0  0  0  0  0  0  0  0  0
   -2.9751   -1.9351    0.6655 H   0  0  0  0  0  0  0  0  0  0  0  0
   -2.7272    1.1435    2.1644 H   0  0  0  0  0  0  0  0  0  0  0  0
   -1.9686    2.0281    0.7943 H   0  0  0  0  0  0  0  0  0  0  0  0
   -0.4663    2.0207    2.7057 H   0  0  0  0  0  0  0  0  0  0  0  0
   -0.5426    0.2256    2.8542 H   0  0  0  0  0  0  0  0  0  0  0  0
    3.5330    2.4529    0.8254 H   0  0  0  0  0  0  0  0  0  0  0  0
    2.7583    1.4100   -0.3652 H   0  0  0  0  0  0  0  0  0  0  0  0
    4.9684    0.5677    0.2192 H   0  0  0  0  0  0  0  0  0  0  0  0
    3.3846   -1.0751   -0.2871 H   0  0  0  0  0  0  0  0  0  0  0  0
    2.8016   -1.1545    1.3030 H   0  0  0  0  0  0  0  0  0  0  0  0
    4.0344    0.1523    3.1296 H   0  0  0  0  0  0  0  0  0  0  0  0
    5.0280    1.5338    2.5885 H   0  0  0  0  0  0  0  0  0  0  0  0
    4.9788   -2.0917    3.2836 H   0  0  0  0  0  0  0  0  0  0  0  0
    9.3632   -0.2922    1.8126 H   0  0  0  0  0  0  0  0  0  0  0  0
    0.3466    1.2188   -0.9018 H   0  0  0  0  0  0  0  0  0  0  0  0
    1.1948   -0.3009   -0.4268 H   0  0  0  0  0  0  0  0  0  0  0  0
   -5.0135   -2.0619   -3.6768 H   0  0  0  0  0  0  0  0  0  0  0  0
   -6.8606   -1.3449   -5.1277 H   0  0  0  0  0  0  0  0  0  0  0  0
   -5.2437   -0.9121   -5.8463 H   0  0  0  0  0  0  0  0  0  0  0  0
   -6.7143    0.0405   -6.2725 H   0  0  0  0  0  0  0  0  0  0  0  0
  1  2  1  0
  2  3  1  0
  3  4  2  0
  4  5  1  0
  5  6  1  0
  6  7  1  0
  7  8  1  0
  8  9  1  0
  9 10  1  0
 10 11  1  0
 11 12  2  0
 11 13  1  0
 13 14  1  0
 14 15  1  0
 14 16  1  0
 16 17  1  0
 17 18  2  0
 18 19  1  0
 19 20  1  0
 19 21  2  0
 21 22  1  0
 21 23  1  0
 23 24  2  0
 24 25  1  0
 10 26  1  0
 26 27  1  0
 27 28  2  0
  5 29  2  0
 29 30  1  0
 30 31  2  0
 30 32  1  0
 29 33  1  0
 33 34  2  0
 34 35  1  0
 35 36  1  0
 34  3  1  0
 27  7  1  0
 24 17  1  0
  1 37  1  0
  1 38  1  0
  1 39  1  0
  4 40  1  0
  6 41  1  0
  6 42  1  0
  8 43  1  0
  8 44  1  0
  9 45  1  0
  9 46  1  0
 13 47  1  0
 13 48  1  0
 14 49  1  6
 15 50  1  0
 15 51  1  0
 16 52  1  0
 16 53  1  0
 18 54  1  0
 23 55  1  0
 26 56  1  0
 26 57  1  0
 33 58  1  0
 36 59  1  0
 36 60  1  0
 36 61  1  0
M  CHG  2  30   1  32  -1
M  END
$$$$
