
     RDKit          3D

 50 50  0  0  0  0  0  0  0  0999 V2000
    6.3025    0.1387   -0.6512 C   0  0  0  0  0  0  0  0  0  0  0  0
    4.7844   -0.7443   -0.9535 S   0  0  0  0  0  0  0  0  0  0  0  0
    4.8406   -1.3001   -2.3485 O   0  0  0  0  0  0  0  0  0  0  0  0
    4.6908   -1.8882    0.0161 O   0  0  0  0  0  0  0  0  0  0  0  0
    3.3911    0.3121   -0.8261 N   0  0  0  0  0  0  0  0  0  0  0  0
    3.4712    1.3451    0.2260 C   0  0  0  0  0  0  0  0  0  0  0  0
    3.4440    0.7826    1.6600 C   0  0  0  0  0  0  0  0  0  0  0  0
    2.0168    0.6382    2.2117 C   0  0  0  0  0  0  0  0  0  0  0  0
    1.0912   -0.0228    1.2758 N   0  0  0  0  0  0  0  0  0  0  0  0
   -0.3235    0.2713    1.3815 C   0  0  0  0  0  0  0  0  0  0  0  0
   -0.7608    0.8584    2.4094 O   0  0  0  0  0  0  0  0  0  0  0  0
   -1.3146   -0.0783    0.2977 C   0  0  0  0  0  0  0  0  0  0  0  0
   -2.3244   -1.1564    0.7562 C   0  0  2  0  0  0  0  0  0  0  0  0
   -1.6254   -2.4060    1.0733 N   0  0  0  0  0  0  0  0  0  0  0  0
   -3.3784   -1.4270   -0.3416 C   0  0  0  0  0  0  0  0  0  0  0  0
   -4.2703   -0.2342   -0.5908 C   0  0  0  0  0  0  0  0  0  0  0  0
   -4.0506    0.5902   -1.7081 C   0  0  0  0  0  0  0  0  0  0  0  0
   -4.8602    1.7080   -1.9319 C   0  0  0  0  0  0  0  0  0  0  0  0
   -4.6383    2.4976   -3.0118 F   0  0  0  0  0  0  0  0  0  0  0  0
   -5.8947    2.0126   -1.0421 C   0  0  0  0  0  0  0  0  0  0  0  0
   -6.6801    3.0967   -1.2577 F   0  0  0  0  0  0  0  0  0  0  0  0
   -6.1193    1.1999    0.0725 C   0  0  0  0  0  0  0  0  0  0  0  0
   -5.3121    0.0810    0.3018 C   0  0  0  0  0  0  0  0  0  0  0  0
   -5.5469   -0.6943    1.3908 F   0  0  0  0  0  0  0  0  0  0  0  0
    1.5990   -1.0401    0.3442 C   0  0  0  0  0  0  0  0  0  0  0  0
    2.0973   -0.3859   -0.9550 C   0  0  0  0  0  0  0  0  0  0  0  0
    0.6878    0.0000    0.0000 Cl  0  0  0  0  0  0  0  0  0  0  0  0
    7.1649   -0.5226   -0.8747 H   0  0  0  0  0  0  0  0  0  0  0  0
    6.3525    0.4494    0.4127 H   0  0  0  0  0  0  0  0  0  0  0  0
    6.3497    1.0339   -1.3049 H   0  0  0  0  0  0  0  0  0  0  0  0
    2.6456    2.0776    0.0878 H   0  0  0  0  0  0  0  0  0  0  0  0
    4.4029    1.9315    0.0863 H   0  0  0  0  0  0  0  0  0  0  0  0
    3.9900    1.4888    2.3230 H   0  0  0  0  0  0  0  0  0  0  0  0
    3.9854   -0.1803    1.7337 H   0  0  0  0  0  0  0  0  0  0  0  0
    2.0453    0.0653    3.1632 H   0  0  0  0  0  0  0  0  0  0  0  0
    1.6462    1.6614    2.4440 H   0  0  0  0  0  0  0  0  0  0  0  0
   -1.8608    0.8562    0.0499 H   0  0  0  0  0  0  0  0  0  0  0  0
   -0.8141   -0.3994   -0.6369 H   0  0  0  0  0  0  0  0  0  0  0  0
   -2.8486   -0.7960    1.6711 H   0  0  0  0  0  0  0  0  0  0  0  0
   -2.3308   -3.1154    1.3790 H   0  0  0  0  0  0  0  0  0  0  0  0
   -1.0181   -2.2480    1.9098 H   0  0  0  0  0  0  0  0  0  0  0  0
   -4.0192   -2.2840   -0.0394 H   0  0  0  0  0  0  0  0  0  0  0  0
   -2.8681   -1.7352   -1.2810 H   0  0  0  0  0  0  0  0  0  0  0  0
   -3.2479    0.3704   -2.4013 H   0  0  0  0  0  0  0  0  0  0  0  0
   -6.9201    1.4380    0.7609 H   0  0  0  0  0  0  0  0  0  0  0  0
    2.3945   -1.6378    0.8284 H   0  0  0  0  0  0  0  0  0  0  0  0
    0.8090   -1.7795    0.1032 H   0  0  0  0  0  0  0  0  0  0  0  0
    1.3384    0.3391   -1.3184 H   0  0  0  0  0  0  0  0  0  0  0  0
    2.1740   -1.1684   -1.7408 H   0  0  0  0  0  0  0  0  0  0  0  0
   -0.6878    0.0000    0.0000 H   0  0  0  0  0  0  0  0  0  0  0  0
  1  2  1  0
  2  3  2  0
  2  4  2  0
  2  5  1  0
  5  6  1  0
  6  7  1  0
  7  8  1  0
  8  9  1  0
  9 10  1  0
 10 11  2  0
 10 12  1  0
 12 13  1  0
 13 14  1  0
 13 15  1  0
 15 16  1  0
 16 17  2  0
 17 18  1  0
 18 19  1  0
 18 20  2  0
 20 21  1  0
 20 22  1  0
 22 23  2  0
 23 24  1  0
  9 25  1  0
 25 26  1  0
 26  5  1  0
 23 16  1  0
  1 28  1  0
  1 29  1  0
  1 30  1  0
  6 31  1  0
  6 32  1  0
  7 33  1  0
  7 34  1  0
  8 35  1  0
  8 36  1  0
 12 37  1  0
 12 38  1  0
 13 39  1  1
 14 40  1  0
 14 41  1  0
 15 42  1  0
 15 43  1  0
 17 44  1  0
 22 45  1  0
 25 46  1  0
 25 47  1  0
 26 48  1  0
 26 49  1  0
 27 50  1  0
M  END
$$$$
