
     RDKit          3D

 50 53  0  0  0  0  0  0  0  0999 V2000
   -8.0013   -0.0917    0.2185 C   0  0  0  0  0  0  0  0  0  0  0  0
   -6.6875    1.1032    0.1224 S   0  0  0  0  0  0  0  0  0  0  0  0
   -6.5368    1.5873   -1.2921 O   0  0  0  0  0  0  0  0  0  0  0  0
   -7.0204    2.2677    1.0121 O   0  0  0  0  0  0  0  0  0  0  0  0
   -5.2071    0.3809    0.6483 N   0  0  0  0  0  0  0  0  0  0  0  0
   -4.6385   -0.7154    0.1038 C   0  0  0  0  0  0  0  0  0  0  0  0
   -3.4230   -0.8848    0.7274 C   0  0  0  0  0  0  0  0  0  0  0  0
   -3.3033    0.1405    1.5790 C   0  0  0  0  0  0  0  0  0  0  0  0
   -4.3717    0.9552    1.5039 N   0  0  0  0  0  0  0  0  0  0  0  0
   -1.8880    0.5131    1.7515 C   0  0  0  0  0  0  0  0  0  0  0  0
   -1.1264   -0.5884    1.0937 N   0  0  0  0  0  0  0  0  0  0  0  0
    0.0904   -0.1028    0.3859 C   0  0  2  0  0  0  0  0  0  0  0  0
    0.7445   -1.2021   -0.4849 C   0  0  0  0  0  0  0  0  0  0  0  0
    2.0588   -0.6950   -1.0983 C   0  0  2  0  0  0  0  0  0  0  0  0
    2.7469   -1.7719   -1.8171 N   0  0  0  0  0  0  0  0  0  0  0  0
    2.9711   -0.1085   -0.0002 C   0  0  1  0  0  0  0  0  0  0  0  0
    4.2309    0.4624   -0.6216 C   0  0  0  0  0  0  0  0  0  0  0  0
    4.1864    1.6960   -1.2992 C   0  0  0  0  0  0  0  0  0  0  0  0
    5.3359    2.2190   -1.8986 C   0  0  0  0  0  0  0  0  0  0  0  0
    5.2789    3.4104   -2.5437 F   0  0  0  0  0  0  0  0  0  0  0  0
    6.5402    1.5134   -1.8367 C   0  0  0  0  0  0  0  0  0  0  0  0
    7.6556    2.0190   -2.4192 F   0  0  0  0  0  0  0  0  0  0  0  0
    6.5948    0.2821   -1.1794 C   0  0  0  0  0  0  0  0  0  0  0  0
    5.4487   -0.2476   -0.5773 C   0  0  0  0  0  0  0  0  0  0  0  0
    5.5300   -1.4534    0.0407 F   0  0  0  0  0  0  0  0  0  0  0  0
    2.3120    0.9268    0.7134 O   0  0  0  0  0  0  0  0  0  0  0  0
    1.1425    0.4781    1.3863 C   0  0  2  0  0  0  0  0  0  0  0  0
    1.4808   -0.3956    2.6287 C   0  0  0  0  0  0  0  0  0  0  0  0
    1.6768   -1.7234    2.3030 F   0  0  0  0  0  0  0  0  0  0  0  0
    2.6315    0.0843    3.2291 F   0  0  0  0  0  0  0  0  0  0  0  0
    0.4613   -0.3298    3.5582 F   0  0  0  0  0  0  0  0  0  0  0  0
   -2.1027   -1.2729    0.2009 C   0  0  0  0  0  0  0  0  0  0  0  0
   -8.0940   -0.4570    1.2620 H   0  0  0  0  0  0  0  0  0  0  0  0
   -7.7754   -0.9466   -0.4516 H   0  0  0  0  0  0  0  0  0  0  0  0
   -8.9560    0.3791   -0.0942 H   0  0  0  0  0  0  0  0  0  0  0  0
   -5.0000   -1.2305   -0.7766 H   0  0  0  0  0  0  0  0  0  0  0  0
   -1.6527    0.5730    2.8318 H   0  0  0  0  0  0  0  0  0  0  0  0
   -1.7117    1.4980    1.2635 H   0  0  0  0  0  0  0  0  0  0  0  0
   -0.1979    0.7198   -0.3100 H   0  0  0  0  0  0  0  0  0  0  0  0
    0.0758   -1.4826   -1.3249 H   0  0  0  0  0  0  0  0  0  0  0  0
    0.9169   -2.1230    0.1082 H   0  0  0  0  0  0  0  0  0  0  0  0
    1.8122    0.1122   -1.8252 H   0  0  0  0  0  0  0  0  0  0  0  0
    2.1281   -2.1090   -2.5902 H   0  0  0  0  0  0  0  0  0  0  0  0
    2.9069   -2.5774   -1.1687 H   0  0  0  0  0  0  0  0  0  0  0  0
    3.2671   -0.9165    0.7013 H   0  0  0  0  0  0  0  0  0  0  0  0
    3.2589    2.2515   -1.3648 H   0  0  0  0  0  0  0  0  0  0  0  0
    7.5274   -0.2661   -1.1392 H   0  0  0  0  0  0  0  0  0  0  0  0
    0.6877    1.4018    1.8040 H   0  0  0  0  0  0  0  0  0  0  0  0
   -2.0340   -0.9087   -0.8485 H   0  0  0  0  0  0  0  0  0  0  0  0
   -1.9706   -2.3740    0.2498 H   0  0  0  0  0  0  0  0  0  0  0  0
  1  2  1  0
  2  3  2  0
  2  4  2  0
  2  5  1  0
  5  6  1  0
  6  7  2  0
  7  8  1  0
  8  9  2  0
  8 10  1  0
 10 11  1  0
 11 12  1  0
 12 13  1  0
 13 14  1  0
 14 15  1  0
 14 16  1  0
 16 17  1  0
 17 18  2  0
 18 19  1  0
 19 20  1  0
 19 21  2  0
 21 22  1  0
 21 23  1  0
 23 24  2  0
 24 25  1  0
 16 26  1  0
 26 27  1  0
 27 28  1  0
 28 29  1  0
 28 30  1  0
 28 31  1  0
 11 32  1  0
  9  5  1  0
 27 12  1  0
 32  7  1  0
 24 17  1  0
  1 33  1  0
  1 34  1  0
  1 35  1  0
  6 36  1  0
 10 37  1  0
 10 38  1  0
 12 39  1  6
 13 40  1  0
 13 41  1  0
 14 42  1  6
 15 43  1  0
 15 44  1  0
 16 45  1  1
 18 46  1  0
 23 47  1  0
 27 48  1  1
 32 49  1  0
 32 50  1  0
M  END
$$$$
