
     RDKit          3D

 44 46  0  0  0  0  0  0  0  0999 V2000
   -0.3620   -0.1343   -3.0676 C   0  0  0  0  0  0  0  0  0  0  0  0
    0.0268   -0.0770   -1.6188 C   0  0  0  0  0  0  0  0  0  0  0  0
   -0.9555    0.1471   -0.7055 N   0  0  0  0  0  0  0  0  0  0  0  0
   -0.7226    0.2066    0.6310 C   0  0  0  0  0  0  0  0  0  0  0  0
   -1.8458    0.4662    1.5561 C   0  0  0  0  0  0  0  0  0  0  0  0
   -1.6101    0.8258    2.7423 O   0  0  0  0  0  0  0  0  0  0  0  0
   -3.2076    0.3532    1.1094 N   0  0  0  0  0  0  0  0  0  0  0  0
   -4.2126    1.2857    1.6240 C   0  0  0  0  0  0  0  0  0  0  0  0
   -5.3684    1.3974    0.6239 C   0  0  0  0  0  0  0  0  0  0  0  0
   -5.8724    0.1173    0.2893 O   0  0  0  0  0  0  0  0  0  0  0  0
   -4.8772   -0.6295   -0.3860 C   0  0  0  0  0  0  0  0  0  0  0  0
   -3.6885   -0.9082    0.5380 C   0  0  0  0  0  0  0  0  0  0  0  0
    0.5822    0.0419    1.1062 C   0  0  0  0  0  0  0  0  0  0  0  0
    1.6284   -0.1871    0.2056 C   0  0  0  0  0  0  0  0  0  0  0  0
    2.9872   -0.3873    0.7492 C   0  0  0  0  0  0  0  0  0  0  0  0
    3.8606    0.7072    0.8392 C   0  0  0  0  0  0  0  0  0  0  0  0
    5.1493    0.5399    1.3523 C   0  0  0  0  0  0  0  0  0  0  0  0
    5.5736   -0.7203    1.7840 C   0  0  0  0  0  0  0  0  0  0  0  0
    7.1922   -0.9282    2.4273 Cl  0  0  0  0  0  0  0  0  0  0  0  0
    4.7065   -1.8149    1.7042 C   0  0  0  0  0  0  0  0  0  0  0  0
    3.4136   -1.6553    1.1913 C   0  0  0  0  0  0  0  0  0  0  0  0
    2.3532   -3.0580    1.1096 Cl  0  0  0  0  0  0  0  0  0  0  0  0
    1.3671   -0.2331   -1.1852 C   0  0  0  0  0  0  0  0  0  0  0  0
    2.4880   -0.5162   -2.1678 C   0  0  0  0  0  0  0  0  0  0  0  0
    2.7643   -1.9482   -2.2112 N   0  0  0  0  0  0  0  0  0  0  0  0
    0.0689    0.7338   -3.6087 H   0  0  0  0  0  0  0  0  0  0  0  0
   -0.0051   -1.0803   -3.5252 H   0  0  0  0  0  0  0  0  0  0  0  0
   -1.4672   -0.0972   -3.1751 H   0  0  0  0  0  0  0  0  0  0  0  0
   -3.7655    2.2927    1.7749 H   0  0  0  0  0  0  0  0  0  0  0  0
   -4.5961    0.9135    2.5988 H   0  0  0  0  0  0  0  0  0  0  0  0
   -6.1853    1.9886    1.0886 H   0  0  0  0  0  0  0  0  0  0  0  0
   -5.0421    1.9498   -0.2870 H   0  0  0  0  0  0  0  0  0  0  0  0
   -4.5376   -0.1055   -1.3088 H   0  0  0  0  0  0  0  0  0  0  0  0
   -5.3167   -1.5985   -0.7035 H   0  0  0  0  0  0  0  0  0  0  0  0
   -2.8917   -1.4243   -0.0369 H   0  0  0  0  0  0  0  0  0  0  0  0
   -4.0111   -1.5811    1.3619 H   0  0  0  0  0  0  0  0  0  0  0  0
    0.7870    0.0795    2.1701 H   0  0  0  0  0  0  0  0  0  0  0  0
    3.5430    1.6884    0.5077 H   0  0  0  0  0  0  0  0  0  0  0  0
    5.8168    1.3899    1.4142 H   0  0  0  0  0  0  0  0  0  0  0  0
    5.0371   -2.7893    2.0412 H   0  0  0  0  0  0  0  0  0  0  0  0
    3.4075    0.0258   -1.8611 H   0  0  0  0  0  0  0  0  0  0  0  0
    2.2517   -0.1455   -3.1875 H   0  0  0  0  0  0  0  0  0  0  0  0
    3.5849   -2.0963   -2.8421 H   0  0  0  0  0  0  0  0  0  0  0  0
    1.9508   -2.4262   -2.6621 H   0  0  0  0  0  0  0  0  0  0  0  0
  1  2  1  0
  2  3  2  0
  3  4  1  0
  4  5  1  0
  5  6  2  0
  5  7  1  0
  7  8  1  0
  8  9  1  0
  9 10  1  0
 10 11  1  0
 11 12  1  0
  4 13  2  0
 13 14  1  0
 14 15  1  0
 15 16  2  0
 16 17  1  0
 17 18  2  0
 18 19  1  0
 18 20  1  0
 20 21  2  0
 21 22  1  0
 14 23  2  0
 23 24  1  0
 24 25  1  0
 23  2  1  0
 12  7  1  0
 21 15  1  0
  1 26  1  0
  1 27  1  0
  1 28  1  0
  8 29  1  0
  8 30  1  0
  9 31  1  0
  9 32  1  0
 11 33  1  0
 11 34  1  0
 12 35  1  0
 12 36  1  0
 13 37  1  0
 16 38  1  0
 17 39  1  0
 20 40  1  0
 24 41  1  0
 24 42  1  0
 25 43  1  0
 25 44  1  0
M  END
$$$$
