
     RDKit          3D

 49 52  0  0  0  0  0  0  0  0999 V2000
    1.7671    1.5162   -1.0551 N   0  0  0  0  0  0  0  0  0  0  0  0
    1.4307    0.2045   -0.4853 C   0  0  1  0  0  0  0  0  0  0  0  0
    0.2939   -0.4894   -1.2724 C   0  0  0  0  0  0  0  0  0  0  0  0
   -1.0110    0.2478   -1.1131 C   0  0  0  0  0  0  0  0  0  0  0  0
   -1.3887    0.9994   -2.0534 O   0  0  0  0  0  0  0  0  0  0  0  0
   -1.8014    0.1499    0.0956 N   0  0  0  0  0  0  0  0  0  0  0  0
   -1.6813   -1.0499    0.9458 C   0  0  0  0  0  0  0  0  0  0  0  0
   -2.5888   -1.0344    2.1509 C   0  0  0  0  0  0  0  0  0  0  0  0
   -2.0810   -1.1282    3.3003 O   0  0  0  0  0  0  0  0  0  0  0  0
   -4.0185   -0.9902    2.0212 N   0  0  0  0  0  0  0  0  0  0  0  0
   -4.7187   -0.5364    0.8489 C   0  0  0  0  0  0  0  0  0  0  0  0
   -5.9761   -1.0866    0.5546 C   0  0  0  0  0  0  0  0  0  0  0  0
   -6.6916   -0.6640   -0.5684 C   0  0  0  0  0  0  0  0  0  0  0  0
   -7.8990   -1.2133   -0.8488 F   0  0  0  0  0  0  0  0  0  0  0  0
   -6.1631    0.3214   -1.4035 C   0  0  0  0  0  0  0  0  0  0  0  0
   -4.9241    0.8955   -1.1117 C   0  0  0  0  0  0  0  0  0  0  0  0
   -4.2007    0.4874    0.0218 C   0  0  0  0  0  0  0  0  0  0  0  0
   -2.8752    1.1246    0.3309 C   0  0  0  0  0  0  0  0  0  0  0  0
    2.6897   -0.6975   -0.3815 C   0  0  1  0  0  0  0  0  0  0  0  0
    3.4243   -0.9322   -1.7295 C   0  0  0  0  0  0  0  0  0  0  0  0
    4.7606   -0.1703   -1.6626 C   0  0  0  0  0  0  0  0  0  0  0  0
    4.8750    0.2227   -0.2402 C   0  0  0  0  0  0  0  0  0  0  0  0
    5.9754    0.8283    0.3713 C   0  0  0  0  0  0  0  0  0  0  0  0
    5.9079    1.1276    1.7408 C   0  0  0  0  0  0  0  0  0  0  0  0
    6.9648    1.7129    2.3562 F   0  0  0  0  0  0  0  0  0  0  0  0
    4.7477    0.8184    2.4747 C   0  0  0  0  0  0  0  0  0  0  0  0
    4.6857    1.1041    3.7988 F   0  0  0  0  0  0  0  0  0  0  0  0
    3.6522    0.2141    1.8390 C   0  0  0  0  0  0  0  0  0  0  0  0
    3.7368   -0.0675    0.4711 C   0  0  0  0  0  0  0  0  0  0  0  0
    0.9856    2.1813   -0.8536 H   0  0  0  0  0  0  0  0  0  0  0  0
    1.8513    1.4469   -2.0948 H   0  0  0  0  0  0  0  0  0  0  0  0
    1.0680    0.3658    0.5549 H   0  0  0  0  0  0  0  0  0  0  0  0
    0.1740   -1.5382   -0.9296 H   0  0  0  0  0  0  0  0  0  0  0  0
    0.5493   -0.5452   -2.3520 H   0  0  0  0  0  0  0  0  0  0  0  0
   -1.9222   -1.9511    0.3424 H   0  0  0  0  0  0  0  0  0  0  0  0
   -0.6329   -1.1460    1.2999 H   0  0  0  0  0  0  0  0  0  0  0  0
   -4.5846   -1.3410    2.8269 H   0  0  0  0  0  0  0  0  0  0  0  0
   -6.3948   -1.8551    1.1924 H   0  0  0  0  0  0  0  0  0  0  0  0
   -6.7158    0.6454   -2.2759 H   0  0  0  0  0  0  0  0  0  0  0  0
   -4.5324    1.6631   -1.7677 H   0  0  0  0  0  0  0  0  0  0  0  0
   -2.7213    2.0462   -0.2720 H   0  0  0  0  0  0  0  0  0  0  0  0
   -2.8556    1.4664    1.3882 H   0  0  0  0  0  0  0  0  0  0  0  0
    2.4077   -1.6759    0.0680 H   0  0  0  0  0  0  0  0  0  0  0  0
    3.6317   -2.0190   -1.8449 H   0  0  0  0  0  0  0  0  0  0  0  0
    2.8394   -0.6091   -2.6147 H   0  0  0  0  0  0  0  0  0  0  0  0
    5.6105   -0.8206   -1.9625 H   0  0  0  0  0  0  0  0  0  0  0  0
    4.7261    0.7392   -2.3003 H   0  0  0  0  0  0  0  0  0  0  0  0
    6.8656    1.0595   -0.1996 H   0  0  0  0  0  0  0  0  0  0  0  0
    2.7578   -0.0277    2.3987 H   0  0  0  0  0  0  0  0  0  0  0  0
  1  2  1  0
  2  3  1  0
  3  4  1  0
  4  5  2  0
  4  6  1  0
  6  7  1  0
  7  8  1  0
  8  9  2  0
  8 10  1  0
 10 11  1  0
 11 12  2  0
 12 13  1  0
 13 14  1  0
 13 15  2  0
 15 16  1  0
 16 17  2  0
 17 18  1  0
  2 19  1  0
 19 20  1  0
 20 21  1  0
 21 22  1  0
 22 23  2  0
 23 24  1  0
 24 25  1  0
 24 26  2  0
 26 27  1  0
 26 28  1  0
 28 29  2  0
 18  6  1  0
 29 19  1  0
 17 11  1  0
 29 22  1  0
  1 30  1  0
  1 31  1  0
  2 32  1  1
  3 33  1  0
  3 34  1  0
  7 35  1  0
  7 36  1  0
 10 37  1  0
 12 38  1  0
 15 39  1  0
 16 40  1  0
 18 41  1  0
 18 42  1  0
 19 43  1  1
 20 44  1  0
 20 45  1  0
 21 46  1  0
 21 47  1  0
 23 48  1  0
 28 49  1  0
M  END
$$$$
