
     RDKit          3D

 53 57  0  0  0  0  0  0  0  0999 V2000
    5.4202    3.8820    0.7017 O   0  0  0  0  0  0  0  0  0  0  0  0
    5.5232    3.0942    1.6650 N   0  0  0  0  0  0  0  0  0  0  0  0
    6.5427    3.2840    2.5697 O   0  0  0  0  0  0  0  0  0  0  0  0
    4.5935    2.0072    1.8282 C   0  0  0  0  0  0  0  0  0  0  0  0
    4.7165    1.1256    2.9157 C   0  0  0  0  0  0  0  0  0  0  0  0
    3.8162    0.0704    3.0768 C   0  0  0  0  0  0  0  0  0  0  0  0
    2.7828   -0.1191    2.1578 C   0  0  0  0  0  0  0  0  0  0  0  0
    2.6406    0.7507    1.0625 C   0  0  0  0  0  0  0  0  0  0  0  0
    1.5566    0.5715    0.0767 C   0  0  0  0  0  0  0  0  0  0  0  0
    0.6877   -0.3833    0.2132 N   0  0  0  0  0  0  0  0  0  0  0  0
   -0.3797   -0.6077   -0.6786 N   0  0  0  0  0  0  0  0  0  0  0  0
   -0.8467   -1.9656   -0.8609 C   0  0  0  0  0  0  0  0  0  0  0  0
   -0.2733   -3.0900   -0.0897 C   0  0  0  0  0  0  0  0  0  0  0  0
    1.1176   -3.2849   -0.0208 C   0  0  0  0  0  0  0  0  0  0  0  0
    1.6442   -4.3564    0.7069 C   0  0  0  0  0  0  0  0  0  0  0  0
    0.7889   -5.2485    1.3587 C   0  0  0  0  0  0  0  0  0  0  0  0
   -0.5951   -5.0745    1.2782 C   0  0  0  0  0  0  0  0  0  0  0  0
   -1.1261   -4.0036    0.5525 C   0  0  0  0  0  0  0  0  0  0  0  0
   -1.7725   -2.2246   -1.7354 N   0  0  0  0  0  0  0  0  0  0  0  0
   -2.3588   -1.2099   -2.5532 C   0  0  0  0  0  0  0  0  0  0  0  0
   -3.2140   -1.5676   -3.6014 C   0  0  0  0  0  0  0  0  0  0  0  0
   -3.7716   -0.5803   -4.4189 C   0  0  0  0  0  0  0  0  0  0  0  0
   -3.4811    0.7681   -4.1871 C   0  0  0  0  0  0  0  0  0  0  0  0
   -4.3367    2.2577   -5.4102 I   0  0  0  0  0  0  0  0  0  0  0  0
   -2.6334    1.1298   -3.1347 C   0  0  0  0  0  0  0  0  0  0  0  0
   -2.0593    0.1410   -2.3196 C   0  0  0  0  0  0  0  0  0  0  0  0
   -1.2327    0.5216   -1.1192 C   0  0  0  0  0  0  0  0  0  0  0  0
   -2.1588    0.9204   -0.0403 N   0  0  0  0  0  0  0  0  0  0  0  0
   -1.6578    2.0458    0.7610 C   0  0  0  0  0  0  0  0  0  0  0  0
   -1.8201    3.2946    0.0282 N   0  0  0  0  0  0  0  0  0  0  0  0
   -2.6773    4.2285    0.6567 C   0  0  0  0  0  0  0  0  0  0  0  0
   -3.1768    3.8278    1.8049 C   0  0  0  0  0  0  0  0  0  0  0  0
   -2.6431    2.1976    2.3044 S   0  0  0  0  0  0  0  0  0  0  0  0
    3.5492    1.8098    0.9045 C   0  0  0  0  0  0  0  0  0  0  0  0
    5.5088    1.2511    3.6422 H   0  0  0  0  0  0  0  0  0  0  0  0
    3.9201   -0.6035    3.9174 H   0  0  0  0  0  0  0  0  0  0  0  0
    2.0988   -0.9459    2.3041 H   0  0  0  0  0  0  0  0  0  0  0  0
    1.5144    1.2333   -0.7781 H   0  0  0  0  0  0  0  0  0  0  0  0
    1.7953   -2.6215   -0.5431 H   0  0  0  0  0  0  0  0  0  0  0  0
    2.7158   -4.4991    0.7595 H   0  0  0  0  0  0  0  0  0  0  0  0
    1.1983   -6.0782    1.9204 H   0  0  0  0  0  0  0  0  0  0  0  0
   -1.2571   -5.7697    1.7783 H   0  0  0  0  0  0  0  0  0  0  0  0
   -2.2010   -3.8794    0.5019 H   0  0  0  0  0  0  0  0  0  0  0  0
   -3.4421   -2.6098   -3.7863 H   0  0  0  0  0  0  0  0  0  0  0  0
   -4.4305   -0.8629   -5.2297 H   0  0  0  0  0  0  0  0  0  0  0  0
   -2.4319    2.1767   -2.9449 H   0  0  0  0  0  0  0  0  0  0  0  0
   -0.5903    1.3697   -1.4350 H   0  0  0  0  0  0  0  0  0  0  0  0
   -2.3309    0.1007    0.5887 H   0  0  0  0  0  0  0  0  0  0  0  0
   -0.5937    1.9077    1.0414 H   0  0  0  0  0  0  0  0  0  0  0  0
   -1.3315    3.5059   -0.8697 H   0  0  0  0  0  0  0  0  0  0  0  0
   -2.8998    5.1947    0.2232 H   0  0  0  0  0  0  0  0  0  0  0  0
   -3.8486    4.4365    2.3952 H   0  0  0  0  0  0  0  0  0  0  0  0
    3.4409    2.4813    0.0613 H   0  0  0  0  0  0  0  0  0  0  0  0
  1  2  2  0
  2  3  1  0
  2  4  1  0
  4  5  2  0
  5  6  1  0
  6  7  2  0
  7  8  1  0
  8  9  1  0
  9 10  2  0
 10 11  1  0
 11 12  1  0
 12 13  1  0
 13 14  2  0
 14 15  1  0
 15 16  2  0
 16 17  1  0
 17 18  2  0
 12 19  2  0
 19 20  1  0
 20 21  2  0
 21 22  1  0
 22 23  2  0
 23 24  1  0
 23 25  1  0
 25 26  2  0
 26 27  1  0
 27 28  1  0
 28 29  1  0
 29 30  1  0
 30 31  1  0
 31 32  2  0
 32 33  1  0
  8 34  2  0
 34  4  1  0
 27 11  1  0
 33 29  1  0
 18 13  1  0
 26 20  1  0
  5 35  1  0
  6 36  1  0
  7 37  1  0
  9 38  1  0
 14 39  1  0
 15 40  1  0
 16 41  1  0
 17 42  1  0
 18 43  1  0
 21 44  1  0
 22 45  1  0
 25 46  1  0
 27 47  1  0
 28 48  1  0
 29 49  1  0
 30 50  1  0
 31 51  1  0
 32 52  1  0
 34 53  1  0
M  CHG  2   2   1   3  -1
M  END
$$$$
