
     RDKit          3D

 54 57  0  0  0  0  0  0  0  0999 V2000
   -3.7624    2.6579    0.7676 N   0  0  0  0  0  0  0  0  0  0  0  0
   -4.0036    1.3168    0.2260 C   0  0  1  0  0  0  0  0  0  0  0  0
   -2.6591    0.5835    0.0307 C   0  0  0  0  0  0  0  0  0  0  0  0
   -1.7115    1.3452   -0.8605 C   0  0  0  0  0  0  0  0  0  0  0  0
   -2.1588    1.9320   -1.8842 O   0  0  0  0  0  0  0  0  0  0  0  0
   -0.3005    1.3853   -0.5767 N   0  0  0  0  0  0  0  0  0  0  0  0
    0.5003    2.5260   -1.0370 C   0  0  0  0  0  0  0  0  0  0  0  0
    1.5863    2.8581   -0.0106 C   0  0  0  0  0  0  0  0  0  0  0  0
    2.2938    1.6382    0.3914 N   0  0  0  0  0  0  0  0  0  0  0  0
    3.6815    1.7185    0.7563 C   0  0  0  0  0  0  0  0  0  0  0  0
    4.1030    2.7201    1.3949 O   0  0  0  0  0  0  0  0  0  0  0  0
    4.6324    0.6622    0.3757 C   0  0  0  0  0  0  0  0  0  0  0  0
    4.3943   -0.3636   -0.5383 C   0  0  0  0  0  0  0  0  0  0  0  0
    5.5720   -1.0728   -0.5663 C   0  0  0  0  0  0  0  0  0  0  0  0
    5.9398   -2.2032   -1.2926 C   0  0  0  0  0  0  0  0  0  0  0  0
    7.2415   -2.7049   -1.1066 C   0  0  0  0  0  0  0  0  0  0  0  0
    8.1320   -2.0702   -0.2110 C   0  0  0  0  0  0  0  0  0  0  0  0
    7.7285   -0.9281    0.5060 C   0  0  0  0  0  0  0  0  0  0  0  0
    6.4341   -0.4560    0.3006 C   0  0  0  0  0  0  0  0  0  0  0  0
    5.8611    0.5829    0.8564 O   0  0  0  0  0  0  0  0  0  0  0  0
    1.4866    0.5035    0.8545 C   0  0  0  0  0  0  0  0  0  0  0  0
    0.4181    0.1659   -0.1840 C   0  0  0  0  0  0  0  0  0  0  0  0
   -4.9529    0.5257    1.1561 C   0  0  0  0  0  0  0  0  0  0  0  0
   -5.3948   -0.7807    0.5420 C   0  0  0  0  0  0  0  0  0  0  0  0
   -4.7774   -1.9844    0.9243 C   0  0  0  0  0  0  0  0  0  0  0  0
   -5.1659   -3.1944    0.3411 C   0  0  0  0  0  0  0  0  0  0  0  0
   -4.5630   -4.3495    0.7165 F   0  0  0  0  0  0  0  0  0  0  0  0
   -6.1718   -3.2124   -0.6297 C   0  0  0  0  0  0  0  0  0  0  0  0
   -6.5489   -4.3851   -1.1966 F   0  0  0  0  0  0  0  0  0  0  0  0
   -6.7885   -2.0202   -1.0189 C   0  0  0  0  0  0  0  0  0  0  0  0
   -6.4033   -0.8068   -0.4395 C   0  0  0  0  0  0  0  0  0  0  0  0
   -7.0125    0.3399   -0.8346 F   0  0  0  0  0  0  0  0  0  0  0  0
   -3.4144    2.5780    1.7513 H   0  0  0  0  0  0  0  0  0  0  0  0
   -4.6690    3.1790    0.7955 H   0  0  0  0  0  0  0  0  0  0  0  0
   -4.4946    1.4258   -0.7673 H   0  0  0  0  0  0  0  0  0  0  0  0
   -2.1905    0.4313    1.0272 H   0  0  0  0  0  0  0  0  0  0  0  0
   -2.8312   -0.4118   -0.4301 H   0  0  0  0  0  0  0  0  0  0  0  0
    0.9719    2.2730   -2.0114 H   0  0  0  0  0  0  0  0  0  0  0  0
   -0.1385    3.4252   -1.1789 H   0  0  0  0  0  0  0  0  0  0  0  0
    2.2932    3.5885   -0.4624 H   0  0  0  0  0  0  0  0  0  0  0  0
    1.1229    3.3256    0.8855 H   0  0  0  0  0  0  0  0  0  0  0  0
    3.4961   -0.5547   -1.1105 H   0  0  0  0  0  0  0  0  0  0  0  0
    5.2495   -2.6804   -1.9764 H   0  0  0  0  0  0  0  0  0  0  0  0
    7.5626   -3.5819   -1.6533 H   0  0  0  0  0  0  0  0  0  0  0  0
    9.1308   -2.4643   -0.0759 H   0  0  0  0  0  0  0  0  0  0  0  0
    8.4016   -0.4327    1.1934 H   0  0  0  0  0  0  0  0  0  0  0  0
    2.1158   -0.3935    1.0365 H   0  0  0  0  0  0  0  0  0  0  0  0
    0.9953    0.7740    1.8144 H   0  0  0  0  0  0  0  0  0  0  0  0
   -0.2658   -0.5994    0.2381 H   0  0  0  0  0  0  0  0  0  0  0  0
    0.9021   -0.2748   -1.0823 H   0  0  0  0  0  0  0  0  0  0  0  0
   -5.8550    1.1392    1.3713 H   0  0  0  0  0  0  0  0  0  0  0  0
   -4.4566    0.3444    2.1352 H   0  0  0  0  0  0  0  0  0  0  0  0
   -3.9910   -1.9839    1.6691 H   0  0  0  0  0  0  0  0  0  0  0  0
   -7.5656   -2.0359   -1.7723 H   0  0  0  0  0  0  0  0  0  0  0  0
  1  2  1  0
  2  3  1  0
  3  4  1  0
  4  5  2  0
  4  6  1  0
  6  7  1  0
  7  8  1  0
  8  9  1  0
  9 10  1  0
 10 11  2  0
 10 12  1  0
 12 13  2  0
 13 14  1  0
 14 15  2  0
 15 16  1  0
 16 17  2  0
 17 18  1  0
 18 19  2  0
 19 20  1  0
  9 21  1  0
 21 22  1  0
  2 23  1  0
 23 24  1  0
 24 25  2  0
 25 26  1  0
 26 27  1  0
 26 28  2  0
 28 29  1  0
 28 30  1  0
 30 31  2  0
 31 32  1  0
 22  6  1  0
 31 24  1  0
 20 12  1  0
 19 14  1  0
  1 33  1  0
  1 34  1  0
  2 35  1  6
  3 36  1  0
  3 37  1  0
  7 38  1  0
  7 39  1  0
  8 40  1  0
  8 41  1  0
 13 42  1  0
 15 43  1  0
 16 44  1  0
 17 45  1  0
 18 46  1  0
 21 47  1  0
 21 48  1  0
 22 49  1  0
 22 50  1  0
 23 51  1  0
 23 52  1  0
 25 53  1  0
 30 54  1  0
M  END
$$$$
