
     RDKit          3D

 44 46  0  0  0  0  0  0  0  0999 V2000
    6.5463    1.9395   -1.5731 C   0  0  0  0  0  0  0  0  0  0  0  0
    5.4295    1.3911   -2.2655 O   0  0  0  0  0  0  0  0  0  0  0  0
    4.2480    0.9586   -1.6452 C   0  0  0  0  0  0  0  0  0  0  0  0
    4.0556    1.0322   -0.2518 C   0  0  0  0  0  0  0  0  0  0  0  0
    2.8596    0.5864    0.3186 C   0  0  0  0  0  0  0  0  0  0  0  0
    1.8470    0.0518   -0.4905 C   0  0  0  0  0  0  0  0  0  0  0  0
    0.5743   -0.3999    0.1077 C   0  0  0  0  0  0  0  0  0  0  0  0
   -0.5565    0.4064   -0.0698 C   0  0  0  0  0  0  0  0  0  0  0  0
   -1.7839    0.0225    0.4808 C   0  0  0  0  0  0  0  0  0  0  0  0
   -2.9924    0.8596    0.3141 C   0  0  0  0  0  0  0  0  0  0  0  0
   -2.9271    1.9328   -0.3465 O   0  0  0  0  0  0  0  0  0  0  0  0
   -4.2422    0.4600    0.8955 N   0  0  0  0  0  0  0  0  0  0  0  0
   -5.4397    1.2850    0.7644 C   0  0  0  0  0  0  0  0  0  0  0  0
   -6.1009    1.1691   -0.5985 C   0  0  0  0  0  0  0  0  0  0  0  0
   -6.7239    0.4884    0.6102 C   0  0  0  0  0  0  0  0  0  0  0  0
   -1.8629   -1.1414    1.1754 N   0  0  0  0  0  0  0  0  0  0  0  0
   -0.7977   -1.9652    1.3651 C   0  0  0  0  0  0  0  0  0  0  0  0
   -1.0181   -3.2255    2.1514 C   0  0  0  0  0  0  0  0  0  0  0  0
    0.4705   -1.6094    0.8398 C   0  0  0  0  0  0  0  0  0  0  0  0
    1.6642   -2.5446    0.9732 C   0  0  0  0  0  0  0  0  0  0  0  0
    1.7773   -3.4251   -0.1876 N   0  0  0  0  0  0  0  0  0  0  0  0
    2.0312   -0.0080   -1.8787 C   0  0  0  0  0  0  0  0  0  0  0  0
    3.2268    0.4378   -2.4490 C   0  0  0  0  0  0  0  0  0  0  0  0
    7.3387    2.1932   -2.3066 H   0  0  0  0  0  0  0  0  0  0  0  0
    6.9519    1.1968   -0.8539 H   0  0  0  0  0  0  0  0  0  0  0  0
    6.2468    2.8656   -1.0385 H   0  0  0  0  0  0  0  0  0  0  0  0
    4.8214    1.4339    0.3976 H   0  0  0  0  0  0  0  0  0  0  0  0
    2.7222    0.6553    1.3909 H   0  0  0  0  0  0  0  0  0  0  0  0
   -0.4729    1.3307   -0.6300 H   0  0  0  0  0  0  0  0  0  0  0  0
   -4.2863   -0.3861    1.5068 H   0  0  0  0  0  0  0  0  0  0  0  0
   -5.4776    2.2758    1.2647 H   0  0  0  0  0  0  0  0  0  0  0  0
   -5.6147    0.4687   -1.3114 H   0  0  0  0  0  0  0  0  0  0  0  0
   -6.6363    2.0844   -0.9279 H   0  0  0  0  0  0  0  0  0  0  0  0
   -7.6292    0.9997    0.9997 H   0  0  0  0  0  0  0  0  0  0  0  0
   -6.6116   -0.6170    0.6125 H   0  0  0  0  0  0  0  0  0  0  0  0
   -0.6878   -4.1095    1.5680 H   0  0  0  0  0  0  0  0  0  0  0  0
   -0.4593   -3.1751    3.1092 H   0  0  0  0  0  0  0  0  0  0  0  0
   -2.0964   -3.3540    2.3860 H   0  0  0  0  0  0  0  0  0  0  0  0
    1.5938   -3.1626    1.8913 H   0  0  0  0  0  0  0  0  0  0  0  0
    2.6071   -1.9734    1.0880 H   0  0  0  0  0  0  0  0  0  0  0  0
    0.8822   -3.9530   -0.3033 H   0  0  0  0  0  0  0  0  0  0  0  0
    1.9105   -2.8410   -1.0443 H   0  0  0  0  0  0  0  0  0  0  0  0
    1.2517   -0.4059   -2.5170 H   0  0  0  0  0  0  0  0  0  0  0  0
    3.3606    0.3797   -3.5218 H   0  0  0  0  0  0  0  0  0  0  0  0
  1  2  1  0
  2  3  1  0
  3  4  2  0
  4  5  1  0
  5  6  2  0
  6  7  1  0
  7  8  2  0
  8  9  1  0
  9 10  1  0
 10 11  2  0
 10 12  1  0
 12 13  1  0
 13 14  1  0
 14 15  1  0
  9 16  2  0
 16 17  1  0
 17 18  1  0
 17 19  2  0
 19 20  1  0
 20 21  1  0
  6 22  1  0
 22 23  2  0
 23  3  1  0
 19  7  1  0
 15 13  1  0
  1 24  1  0
  1 25  1  0
  1 26  1  0
  4 27  1  0
  5 28  1  0
  8 29  1  0
 12 30  1  0
 13 31  1  0
 14 32  1  0
 14 33  1  0
 15 34  1  0
 15 35  1  0
 18 36  1  0
 18 37  1  0
 18 38  1  0
 20 39  1  0
 20 40  1  0
 21 41  1  0
 21 42  1  0
 22 43  1  0
 23 44  1  0
M  END
$$$$
