
     RDKit          3D

 48 50  0  0  0  0  0  0  0  0999 V2000
   -2.5204   -1.5843    1.6737 C   0  0  0  0  0  0  0  0  0  0  0  0
   -2.4576   -1.1264    0.1951 C   0  0  0  0  0  0  0  0  0  0  0  0
   -3.6262   -0.2461   -0.2211 C   0  0  0  0  0  0  0  0  0  0  0  0
   -4.2601    0.6443    0.6703 C   0  0  0  0  0  0  0  0  0  0  0  0
   -5.3026    1.4662    0.2315 C   0  0  0  0  0  0  0  0  0  0  0  0
   -5.7192    1.4226   -1.1032 C   0  0  0  0  0  0  0  0  0  0  0  0
   -6.7913    2.2714   -1.5531 C   0  0  0  0  0  0  0  0  0  0  0  0
   -7.6531    2.9537   -1.9148 N   0  0  0  0  0  0  0  0  0  0  0  0
   -5.0856    0.5571   -2.0008 C   0  0  0  0  0  0  0  0  0  0  0  0
   -4.0433   -0.2657   -1.5647 C   0  0  0  0  0  0  0  0  0  0  0  0
   -1.1773   -0.4791   -0.1937 N   0  0  0  0  0  0  0  0  0  0  0  0
   -0.7747    0.6796    0.6213 C   0  0  0  0  0  0  0  0  0  0  0  0
    0.4964    0.2807    1.3605 C   0  0  2  0  0  0  0  0  0  0  0  0
    1.3550    1.4245    1.6900 N   0  0  0  0  0  0  0  0  0  0  0  0
    1.1592   -0.7439    0.4408 C   0  0  2  0  0  0  0  0  0  0  0  0
    2.1116   -0.1182   -0.5647 C   0  0  0  0  0  0  0  0  0  0  0  0
    1.6402    0.5178   -1.5481 O   0  0  0  0  0  0  0  0  0  0  0  0
    3.5415   -0.1931   -0.3918 N   0  0  0  0  0  0  0  0  0  0  0  0
    4.1886   -0.6302    0.8356 C   0  0  0  0  0  0  0  0  0  0  0  0
    5.6372   -0.1756    0.7244 C   0  0  0  0  0  0  0  0  0  0  0  0
    5.8765    0.0946   -0.7576 C   0  0  0  0  0  0  0  0  0  0  0  0
    4.4916    0.3338   -1.3627 C   0  0  1  0  0  0  0  0  0  0  0  0
    4.3517   -0.3547   -2.6572 C   0  0  0  0  0  0  0  0  0  0  0  0
    4.2409   -0.8956   -3.6742 N   0  0  0  0  0  0  0  0  0  0  0  0
   -0.0331   -1.4106   -0.2562 C   0  0  0  0  0  0  0  0  0  0  0  0
   -1.7748   -2.3790    1.8762 H   0  0  0  0  0  0  0  0  0  0  0  0
   -3.5225   -2.0137    1.8868 H   0  0  0  0  0  0  0  0  0  0  0  0
   -2.3387   -0.7613    2.3912 H   0  0  0  0  0  0  0  0  0  0  0  0
   -2.5578   -2.0648   -0.3980 H   0  0  0  0  0  0  0  0  0  0  0  0
   -3.9572    0.7132    1.7052 H   0  0  0  0  0  0  0  0  0  0  0  0
   -5.7808    2.1394    0.9330 H   0  0  0  0  0  0  0  0  0  0  0  0
   -5.3938    0.5211   -3.0389 H   0  0  0  0  0  0  0  0  0  0  0  0
   -3.5574   -0.9195   -2.2787 H   0  0  0  0  0  0  0  0  0  0  0  0
   -1.5553    1.0256    1.3282 H   0  0  0  0  0  0  0  0  0  0  0  0
   -0.5714    1.5255   -0.0700 H   0  0  0  0  0  0  0  0  0  0  0  0
    0.2087   -0.2355    2.3050 H   0  0  0  0  0  0  0  0  0  0  0  0
    1.4803    2.0388    0.8529 H   0  0  0  0  0  0  0  0  0  0  0  0
    0.8634    1.9998    2.4118 H   0  0  0  0  0  0  0  0  0  0  0  0
    1.6947   -1.5055    1.0471 H   0  0  0  0  0  0  0  0  0  0  0  0
    3.7095   -0.1629    1.7229 H   0  0  0  0  0  0  0  0  0  0  0  0
    4.1336   -1.7377    0.9112 H   0  0  0  0  0  0  0  0  0  0  0  0
    5.7768    0.7667    1.2989 H   0  0  0  0  0  0  0  0  0  0  0  0
    6.3352   -0.9476    1.1153 H   0  0  0  0  0  0  0  0  0  0  0  0
    6.3719   -0.7964   -1.2066 H   0  0  0  0  0  0  0  0  0  0  0  0
    6.5350    0.9789   -0.9010 H   0  0  0  0  0  0  0  0  0  0  0  0
    4.3165    1.4232   -1.4996 H   0  0  0  0  0  0  0  0  0  0  0  0
   -0.2489   -2.3778    0.2464 H   0  0  0  0  0  0  0  0  0  0  0  0
    0.1870   -1.6532   -1.3186 H   0  0  0  0  0  0  0  0  0  0  0  0
  1  2  1  0
  2  3  1  0
  3  4  2  0
  4  5  1  0
  5  6  2  0
  6  7  1  0
  7  8  3  0
  6  9  1  0
  9 10  2  0
  2 11  1  0
 11 12  1  0
 12 13  1  0
 13 14  1  0
 13 15  1  0
 15 16  1  0
 16 17  2  0
 16 18  1  0
 18 19  1  0
 19 20  1  0
 20 21  1  0
 21 22  1  0
 22 23  1  0
 23 24  3  0
 15 25  1  0
 10  3  1  0
 25 11  1  0
 22 18  1  0
  1 26  1  0
  1 27  1  0
  1 28  1  0
  2 29  1  0
  4 30  1  0
  5 31  1  0
  9 32  1  0
 10 33  1  0
 12 34  1  0
 12 35  1  0
 13 36  1  1
 14 37  1  0
 14 38  1  0
 15 39  1  1
 19 40  1  0
 19 41  1  0
 20 42  1  0
 20 43  1  0
 21 44  1  0
 21 45  1  0
 22 46  1  6
 25 47  1  0
 25 48  1  0
M  END
$$$$
