
     RDKit          3D

 41 41  0  0  0  0  0  0  0  0999 V2000
    3.4960   -0.0213   -2.8577 C   0  0  0  0  0  0  0  0  0  0  0  0
    2.1476    0.4230   -2.2783 C   0  0  0  0  0  0  0  0  0  0  0  0
    2.1727    0.8380   -0.7690 C   0  0  0  0  0  0  0  0  0  0  0  0
    3.2337    1.9475   -0.5570 C   0  0  0  0  0  0  0  0  0  0  0  0
    2.5415   -0.3876    0.1291 C   0  0  0  0  0  0  0  0  0  0  0  0
    2.3005   -0.1613    1.6256 C   0  0  0  0  0  0  0  0  0  0  0  0
    0.8576    1.4065   -0.3685 N   0  0  0  0  0  0  0  0  0  0  0  0
   -0.3154    0.5581   -0.6477 C   0  0  0  0  0  0  0  0  0  0  0  0
   -1.4728    0.9748    0.2230 C   0  0  0  0  0  0  0  0  0  0  0  0
   -1.6195    2.1993    0.4894 O   0  0  0  0  0  0  0  0  0  0  0  0
   -2.4654    0.0301    0.6817 N   0  0  0  0  0  0  0  0  0  0  0  0
   -3.7679    0.4591    1.1725 C   0  0  2  0  0  0  0  0  0  0  0  0
   -3.6543    0.8895    2.5753 C   0  0  0  0  0  0  0  0  0  0  0  0
   -3.5639    1.2278    3.6783 N   0  0  0  0  0  0  0  0  0  0  0  0
   -4.6772   -0.7604    1.0378 C   0  0  0  0  0  0  0  0  0  0  0  0
   -3.7454   -1.9658    0.9655 C   0  0  0  0  0  0  0  0  0  0  0  0
   -2.3883   -1.4178    0.5114 C   0  0  2  0  0  0  0  0  0  0  0  0
   -1.3004   -1.9797    1.3309 C   0  0  0  0  0  0  0  0  0  0  0  0
   -0.4460   -2.4216    1.9742 N   0  0  0  0  0  0  0  0  0  0  0  0
    3.9104   -0.8814   -2.2939 H   0  0  0  0  0  0  0  0  0  0  0  0
    4.2252    0.8146   -2.8599 H   0  0  0  0  0  0  0  0  0  0  0  0
    3.3507   -0.3428   -3.9107 H   0  0  0  0  0  0  0  0  0  0  0  0
    1.4361   -0.4172   -2.4277 H   0  0  0  0  0  0  0  0  0  0  0  0
    1.7756    1.2760   -2.8873 H   0  0  0  0  0  0  0  0  0  0  0  0
    3.1217    2.4109    0.4459 H   0  0  0  0  0  0  0  0  0  0  0  0
    3.1110    2.7542   -1.3115 H   0  0  0  0  0  0  0  0  0  0  0  0
    4.2675    1.5492   -0.6339 H   0  0  0  0  0  0  0  0  0  0  0  0
    1.9720   -1.2882   -0.1833 H   0  0  0  0  0  0  0  0  0  0  0  0
    3.6138   -0.6477   -0.0020 H   0  0  0  0  0  0  0  0  0  0  0  0
    1.2312    0.0542    1.8294 H   0  0  0  0  0  0  0  0  0  0  0  0
    2.9242    0.6735    2.0053 H   0  0  0  0  0  0  0  0  0  0  0  0
    2.5779   -1.0799    2.1844 H   0  0  0  0  0  0  0  0  0  0  0  0
    0.7113    2.3181   -0.8655 H   0  0  0  0  0  0  0  0  0  0  0  0
   -0.0807   -0.5054   -0.4757 H   0  0  0  0  0  0  0  0  0  0  0  0
   -0.6244    0.6692   -1.7101 H   0  0  0  0  0  0  0  0  0  0  0  0
   -4.1644    1.2962    0.5569 H   0  0  0  0  0  0  0  0  0  0  0  0
   -5.2458   -0.6861    0.0844 H   0  0  0  0  0  0  0  0  0  0  0  0
   -5.4067   -0.8572    1.8730 H   0  0  0  0  0  0  0  0  0  0  0  0
   -3.6872   -2.4306    1.9763 H   0  0  0  0  0  0  0  0  0  0  0  0
   -4.1310   -2.7240    0.2492 H   0  0  0  0  0  0  0  0  0  0  0  0
   -2.2217   -1.6631   -0.5600 H   0  0  0  0  0  0  0  0  0  0  0  0
  1  2  1  0
  2  3  1  0
  3  4  1  0
  3  5  1  0
  5  6  1  0
  3  7  1  0
  7  8  1  0
  8  9  1  0
  9 10  2  0
  9 11  1  0
 11 12  1  0
 12 13  1  0
 13 14  3  0
 12 15  1  0
 15 16  1  0
 16 17  1  0
 17 18  1  0
 18 19  3  0
 17 11  1  0
  1 20  1  0
  1 21  1  0
  1 22  1  0
  2 23  1  0
  2 24  1  0
  4 25  1  0
  4 26  1  0
  4 27  1  0
  5 28  1  0
  5 29  1  0
  6 30  1  0
  6 31  1  0
  6 32  1  0
  7 33  1  0
  8 34  1  0
  8 35  1  0
 12 36  1  6
 15 37  1  0
 15 38  1  0
 16 39  1  0
 16 40  1  0
 17 41  1  6
M  END
$$$$
