
     RDKit          3D

 45 46  0  0  0  0  0  0  0  0999 V2000
    1.0797    2.3882    0.0278 N   0  0  0  0  0  0  0  0  0  0  0  0
    0.3644    1.1217    0.2084 C   0  0  1  0  0  0  0  0  0  0  0  0
   -1.1108    1.2624   -0.2137 C   0  0  0  0  0  0  0  0  0  0  0  0
   -1.7869   -0.0403   -0.1345 N   0  0  0  0  0  0  0  0  0  0  0  0
   -3.1569   -0.1245    0.3003 C   0  0  0  0  0  0  0  0  0  0  0  0
   -3.5837    0.5027    1.4816 C   0  0  0  0  0  0  0  0  0  0  0  0
   -4.8814    0.3902    1.8692 N   0  0  0  0  0  0  0  0  0  0  0  0
   -5.7770   -0.3213    1.1366 C   0  0  0  0  0  0  0  0  0  0  0  0
   -5.3556   -0.9575   -0.0314 C   0  0  0  0  0  0  0  0  0  0  0  0
   -4.0586   -0.8480   -0.4203 N   0  0  0  0  0  0  0  0  0  0  0  0
   -1.1863   -1.1661   -0.8609 C   0  0  0  0  0  0  0  0  0  0  0  0
    0.2820   -1.3332   -0.4575 C   0  0  0  0  0  0  0  0  0  0  0  0
    1.0484   -0.0040   -0.6060 C   0  0  2  0  0  0  0  0  0  0  0  0
    2.5185   -0.1695   -0.2430 C   0  0  0  0  0  0  0  0  0  0  0  0
    3.4979    0.0438   -1.2326 C   0  0  0  0  0  0  0  0  0  0  0  0
    4.8563   -0.0962   -0.9345 C   0  0  0  0  0  0  0  0  0  0  0  0
    5.7848    0.1138   -1.9003 F   0  0  0  0  0  0  0  0  0  0  0  0
    5.2569   -0.4511    0.3550 C   0  0  0  0  0  0  0  0  0  0  0  0
    6.5746   -0.5871    0.6451 F   0  0  0  0  0  0  0  0  0  0  0  0
    4.2994   -0.6665    1.3477 C   0  0  0  0  0  0  0  0  0  0  0  0
    2.9378   -0.5286    1.0588 C   0  0  0  0  0  0  0  0  0  0  0  0
    2.0421   -0.7474    2.0533 F   0  0  0  0  0  0  0  0  0  0  0  0
    0.8245    0.8814   -1.2255 O   0  0  0  0  0  0  0  0  0  0  0  0
    0.4795    0.1261   -0.2776 C   0  0  0  0  0  0  0  0  0  0  0  0
    1.4442   -0.5907    0.4240 O   0  0  0  0  0  0  0  0  0  0  0  0
   -0.9558    0.0463    0.1306 C   0  0  0  0  0  0  0  0  0  0  0  0
   -1.1924   -1.1420    0.7973 F   0  0  0  0  0  0  0  0  0  0  0  0
   -1.7690    0.1050   -0.9867 F   0  0  0  0  0  0  0  0  0  0  0  0
   -1.2539    1.1046    0.9679 F   0  0  0  0  0  0  0  0  0  0  0  0
    0.6313    3.1161    0.6305 H   0  0  0  0  0  0  0  0  0  0  0  0
    0.9860    2.7025   -0.9658 H   0  0  0  0  0  0  0  0  0  0  0  0
    0.3791    0.8613    1.2887 H   0  0  0  0  0  0  0  0  0  0  0  0
   -1.6044    2.0143    0.4372 H   0  0  0  0  0  0  0  0  0  0  0  0
   -1.1752    1.6363   -1.2590 H   0  0  0  0  0  0  0  0  0  0  0  0
   -2.8908    1.0555    2.1015 H   0  0  0  0  0  0  0  0  0  0  0  0
   -6.8057   -0.3976    1.4623 H   0  0  0  0  0  0  0  0  0  0  0  0
   -6.0526   -1.5347   -0.6239 H   0  0  0  0  0  0  0  0  0  0  0  0
   -1.7223   -2.1130   -0.6301 H   0  0  0  0  0  0  0  0  0  0  0  0
   -1.2612   -0.9823   -1.9549 H   0  0  0  0  0  0  0  0  0  0  0  0
    0.3180   -1.6925    0.5924 H   0  0  0  0  0  0  0  0  0  0  0  0
    0.7492   -2.1091   -1.1026 H   0  0  0  0  0  0  0  0  0  0  0  0
    0.9783    0.2826   -1.6809 H   0  0  0  0  0  0  0  0  0  0  0  0
    3.2115    0.3209   -2.2396 H   0  0  0  0  0  0  0  0  0  0  0  0
    4.6132   -0.9417    2.3467 H   0  0  0  0  0  0  0  0  0  0  0  0
    2.4230   -0.5308    0.1700 H   0  0  0  0  0  0  0  0  0  0  0  0
  1  2  1  0
  2  3  1  0
  3  4  1  0
  4  5  1  0
  5  6  2  0
  6  7  1  0
  7  8  2  0
  8  9  1  0
  9 10  2  0
  4 11  1  0
 11 12  1  0
 12 13  1  0
 13 14  1  0
 14 15  2  0
 15 16  1  0
 16 17  1  0
 16 18  2  0
 18 19  1  0
 18 20  1  0
 20 21  2  0
 21 22  1  0
 23 24  2  0
 24 25  1  0
 24 26  1  0
 26 27  1  0
 26 28  1  0
 26 29  1  0
 13  2  1  0
 21 14  1  0
 10  5  1  0
  1 30  1  0
  1 31  1  0
  2 32  1  1
  3 33  1  0
  3 34  1  0
  6 35  1  0
  8 36  1  0
  9 37  1  0
 11 38  1  0
 11 39  1  0
 12 40  1  0
 12 41  1  0
 13 42  1  6
 15 43  1  0
 20 44  1  0
 25 45  1  0
M  END
$$$$
