
     RDKit          3D

 68 68  0  0  0  0  0  0  0  0999 V2000
    0.6430    5.1686   -1.5418 C   0  0  0  0  0  0  0  0  0  0  0  0
    0.2248    3.7992   -1.0962 C   0  0  0  0  0  0  0  0  0  0  0  0
    0.1232    2.7528   -2.0263 C   0  0  0  0  0  0  0  0  0  0  0  0
   -0.2155    1.4647   -1.6031 C   0  0  0  0  0  0  0  0  0  0  0  0
   -0.4463    1.2077   -0.2448 C   0  0  0  0  0  0  0  0  0  0  0  0
   -0.8052   -0.1576    0.2025 C   0  0  0  0  0  0  0  0  0  0  0  0
    0.2149   -1.0545    0.6084 C   0  0  0  0  0  0  0  0  0  0  0  0
    1.6769   -0.6275    0.5974 C   0  0  0  0  0  0  0  0  0  0  0  0
    2.3216   -0.8197   -0.7544 C   0  0  0  0  0  0  0  0  0  0  0  0
    1.7383   -1.5126   -1.6337 O   0  0  0  0  0  0  0  0  0  0  0  0
    3.6319   -0.2900   -1.0334 N   0  0  0  0  0  0  0  0  0  0  0  0
    4.4617   -0.8156   -2.1034 C   0  0  0  0  0  0  0  0  0  0  0  0
    5.8775   -0.3468   -1.8004 C   0  0  0  0  0  0  0  0  0  0  0  0
    5.7444    0.7931   -0.7930 C   0  0  0  0  0  0  0  0  0  0  0  0
    4.3343    0.6797   -0.2012 C   0  0  1  0  0  0  0  0  0  0  0  0
    3.6335    2.0102   -0.2206 C   0  0  0  0  0  0  0  0  0  0  0  0
    3.2642    2.5178   -1.3137 O   0  0  0  0  0  0  0  0  0  0  0  0
    3.4228    2.6986    0.9697 O   0  0  0  0  0  0  0  0  0  0  0  0
   -0.1473   -2.3755    0.9492 C   0  0  0  0  0  0  0  0  0  0  0  0
    0.8643   -3.4069    1.3598 C   0  0  0  0  0  0  0  0  0  0  0  0
   -1.4503   -2.7462    0.9117 N   0  0  0  0  0  0  0  0  0  0  0  0
   -2.4591   -1.9138    0.5500 C   0  0  0  0  0  0  0  0  0  0  0  0
   -3.8552   -2.4971    0.5592 C   0  0  0  0  0  0  0  0  0  0  0  0
   -4.3986   -2.6691    1.9947 C   0  0  0  0  0  0  0  0  0  0  0  0
   -5.6937   -3.4906    1.9770 C   0  0  0  0  0  0  0  0  0  0  0  0
   -4.6449   -1.3187    2.6813 C   0  0  0  0  0  0  0  0  0  0  0  0
   -2.1634   -0.5712    0.2002 C   0  0  0  0  0  0  0  0  0  0  0  0
   -3.2515    0.3942   -0.2416 C   0  0  0  0  0  0  0  0  0  0  0  0
   -3.4040    0.3472   -1.6921 N   0  0  0  0  0  0  0  0  0  0  0  0
   -0.3329    2.2483    0.6879 C   0  0  0  0  0  0  0  0  0  0  0  0
    0.0077    3.5360    0.2650 C   0  0  0  0  0  0  0  0  0  0  0  0
    0.6878    0.0000    0.0000 Cl  0  0  0  0  0  0  0  0  0  0  0  0
    0.6878    0.0000    0.0000 Cl  0  0  0  0  0  0  0  0  0  0  0  0
    1.7487    5.2510   -1.4897 H   0  0  0  0  0  0  0  0  0  0  0  0
    0.1903    5.9466   -0.8908 H   0  0  0  0  0  0  0  0  0  0  0  0
    0.3138    5.3597   -2.5854 H   0  0  0  0  0  0  0  0  0  0  0  0
    0.3117    2.9328   -3.0774 H   0  0  0  0  0  0  0  0  0  0  0  0
   -0.2932    0.6664   -2.3309 H   0  0  0  0  0  0  0  0  0  0  0  0
    1.7588    0.4306    0.9098 H   0  0  0  0  0  0  0  0  0  0  0  0
    2.2633   -1.1898    1.3516 H   0  0  0  0  0  0  0  0  0  0  0  0
    4.4213   -1.9268   -2.1209 H   0  0  0  0  0  0  0  0  0  0  0  0
    4.1114   -0.4100   -3.0771 H   0  0  0  0  0  0  0  0  0  0  0  0
    6.4555   -1.1797   -1.3425 H   0  0  0  0  0  0  0  0  0  0  0  0
    6.3961   -0.0120   -2.7250 H   0  0  0  0  0  0  0  0  0  0  0  0
    6.5158    0.7066    0.0033 H   0  0  0  0  0  0  0  0  0  0  0  0
    5.8966    1.7611   -1.3218 H   0  0  0  0  0  0  0  0  0  0  0  0
    4.3973    0.2955    0.8408 H   0  0  0  0  0  0  0  0  0  0  0  0
    2.9638    3.6016    0.9728 H   0  0  0  0  0  0  0  0  0  0  0  0
    1.6670   -3.4852    0.5969 H   0  0  0  0  0  0  0  0  0  0  0  0
    1.3026   -3.1351    2.3427 H   0  0  0  0  0  0  0  0  0  0  0  0
    0.3856   -4.4047    1.4571 H   0  0  0  0  0  0  0  0  0  0  0  0
   -4.5706   -1.9274   -0.0655 H   0  0  0  0  0  0  0  0  0  0  0  0
   -3.7922   -3.5001    0.0826 H   0  0  0  0  0  0  0  0  0  0  0  0
   -3.6512   -3.2332    2.5964 H   0  0  0  0  0  0  0  0  0  0  0  0
   -6.0690   -3.6392    3.0121 H   0  0  0  0  0  0  0  0  0  0  0  0
   -6.4773   -2.9742    1.3816 H   0  0  0  0  0  0  0  0  0  0  0  0
   -5.5076   -4.4919    1.5333 H   0  0  0  0  0  0  0  0  0  0  0  0
   -5.4135   -0.7336    2.1329 H   0  0  0  0  0  0  0  0  0  0  0  0
   -4.9998   -1.4800    3.7216 H   0  0  0  0  0  0  0  0  0  0  0  0
   -3.7056   -0.7292    2.7332 H   0  0  0  0  0  0  0  0  0  0  0  0
   -2.9995    1.4311    0.0651 H   0  0  0  0  0  0  0  0  0  0  0  0
   -4.2207    0.1918    0.2544 H   0  0  0  0  0  0  0  0  0  0  0  0
   -4.1116    1.0680   -1.9626 H   0  0  0  0  0  0  0  0  0  0  0  0
   -3.8093   -0.5809   -1.9523 H   0  0  0  0  0  0  0  0  0  0  0  0
   -0.5020    2.0587    1.7407 H   0  0  0  0  0  0  0  0  0  0  0  0
    0.1062    4.3263    0.9988 H   0  0  0  0  0  0  0  0  0  0  0  0
   -0.6878    0.0000    0.0000 H   0  0  0  0  0  0  0  0  0  0  0  0
   -0.6878    0.0000    0.0000 H   0  0  0  0  0  0  0  0  0  0  0  0
  1  2  1  0
  2  3  2  0
  3  4  1  0
  4  5  2  0
  5  6  1  0
  6  7  1  0
  7  8  1  0
  8  9  1  0
  9 10  2  0
  9 11  1  0
 11 12  1  0
 12 13  1  0
 13 14  1  0
 14 15  1  0
 15 16  1  0
 16 17  2  0
 16 18  1  0
  7 19  2  0
 19 20  1  0
 19 21  1  0
 21 22  2  0
 22 23  1  0
 23 24  1  0
 24 25  1  0
 24 26  1  0
 22 27  1  0
 27 28  1  0
 28 29  1  0
  5 30  1  0
 30 31  2  0
 31  2  1  0
 27  6  2  0
 15 11  1  0
  1 34  1  0
  1 35  1  0
  1 36  1  0
  3 37  1  0
  4 38  1  0
  8 39  1  0
  8 40  1  0
 12 41  1  0
 12 42  1  0
 13 43  1  0
 13 44  1  0
 14 45  1  0
 14 46  1  0
 15 47  1  1
 18 48  1  0
 20 49  1  0
 20 50  1  0
 20 51  1  0
 23 52  1  0
 23 53  1  0
 24 54  1  0
 25 55  1  0
 25 56  1  0
 25 57  1  0
 26 58  1  0
 26 59  1  0
 26 60  1  0
 28 61  1  0
 28 62  1  0
 29 63  1  0
 29 64  1  0
 30 65  1  0
 31 66  1  0
 32 67  1  0
 33 68  1  0
M  END
$$$$
