
     RDKit          3D

 35 36  0  0  0  0  0  0  0  0999 V2000
   -2.7848   -2.3440    1.7413 N   0  0  0  0  0  0  0  0  0  0  0  0
   -2.4967   -1.3183    1.2894 C   0  0  0  0  0  0  0  0  0  0  0  0
   -2.1294   -0.0137    0.7144 C   0  0  0  0  0  0  0  0  0  0  0  0
   -3.0246    1.0965    1.2674 C   0  0  0  0  0  0  0  0  0  0  0  0
   -4.1388    1.3035    0.2427 C   0  0  0  0  0  0  0  0  0  0  0  0
   -3.5736    0.8635   -1.1027 C   0  0  0  0  0  0  0  0  0  0  0  0
   -2.4028    0.0033   -0.7602 C   0  0  0  0  0  0  0  0  0  0  0  0
   -1.6738   -0.6319   -1.7043 C   0  0  0  0  0  0  0  0  0  0  0  0
   -2.0421   -0.5247   -3.0102 F   0  0  0  0  0  0  0  0  0  0  0  0
   -0.4631   -1.4682   -1.3816 C   0  0  0  0  0  0  0  0  0  0  0  0
    0.6175   -0.6145   -0.8774 N   0  0  0  0  0  0  0  0  0  0  0  0
    1.7449   -1.4293   -0.4145 C   0  0  0  0  0  0  0  0  0  0  0  0
    2.7755   -0.5425    0.2267 C   0  0  0  0  0  0  0  0  0  0  0  0
    3.8884   -0.0978   -0.5061 C   0  0  0  0  0  0  0  0  0  0  0  0
    4.8243    0.7569    0.0852 C   0  0  0  0  0  0  0  0  0  0  0  0
    4.6498    1.1817    1.4057 C   0  0  0  0  0  0  0  0  0  0  0  0
    5.5572    2.0118    1.9764 F   0  0  0  0  0  0  0  0  0  0  0  0
    3.5361    0.7556    2.1354 C   0  0  0  0  0  0  0  0  0  0  0  0
    2.5983   -0.0992    1.5478 C   0  0  0  0  0  0  0  0  0  0  0  0
   -1.0659    0.2120    0.9401 H   0  0  0  0  0  0  0  0  0  0  0  0
   -3.4387    0.8629    2.2737 H   0  0  0  0  0  0  0  0  0  0  0  0
   -2.4317    2.0349    1.3467 H   0  0  0  0  0  0  0  0  0  0  0  0
   -5.0066    0.6605    0.5097 H   0  0  0  0  0  0  0  0  0  0  0  0
   -4.4692    2.3645    0.2152 H   0  0  0  0  0  0  0  0  0  0  0  0
   -4.3330    0.2918   -1.6793 H   0  0  0  0  0  0  0  0  0  0  0  0
   -3.2328    1.7446   -1.6887 H   0  0  0  0  0  0  0  0  0  0  0  0
   -0.7430   -2.2405   -0.6327 H   0  0  0  0  0  0  0  0  0  0  0  0
   -0.1293   -1.9946   -2.3039 H   0  0  0  0  0  0  0  0  0  0  0  0
    0.9532   -0.0171   -1.6704 H   0  0  0  0  0  0  0  0  0  0  0  0
    1.3998   -2.1741    0.3374 H   0  0  0  0  0  0  0  0  0  0  0  0
    2.1916   -1.9914   -1.2662 H   0  0  0  0  0  0  0  0  0  0  0  0
    4.0306   -0.4108   -1.5330 H   0  0  0  0  0  0  0  0  0  0  0  0
    5.6825    1.0924   -0.4827 H   0  0  0  0  0  0  0  0  0  0  0  0
    3.3963    1.0902    3.1553 H   0  0  0  0  0  0  0  0  0  0  0  0
    1.7339   -0.4140    2.1197 H   0  0  0  0  0  0  0  0  0  0  0  0
  1  2  3  0
  2  3  1  0
  3  4  1  0
  4  5  1  0
  5  6  1  0
  6  7  1  0
  7  8  2  0
  8  9  1  0
  8 10  1  0
 10 11  1  0
 11 12  1  0
 12 13  1  0
 13 14  2  0
 14 15  1  0
 15 16  2  0
 16 17  1  0
 16 18  1  0
 18 19  2  0
  7  3  1  0
 19 13  1  0
  3 20  1  0
  4 21  1  0
  4 22  1  0
  5 23  1  0
  5 24  1  0
  6 25  1  0
  6 26  1  0
 10 27  1  0
 10 28  1  0
 11 29  1  0
 12 30  1  0
 12 31  1  0
 14 32  1  0
 15 33  1  0
 18 34  1  0
 19 35  1  0
M  END
$$$$
