
     RDKit          3D

 42 45  0  0  0  0  0  0  0  0999 V2000
    6.5938    1.1845   -1.1143 C   0  0  0  0  0  0  0  0  0  0  0  0
    5.1828    1.3209   -0.9798 O   0  0  0  0  0  0  0  0  0  0  0  0
    4.3374    0.3350   -0.4486 C   0  0  0  0  0  0  0  0  0  0  0  0
    4.8213   -0.9018    0.0091 C   0  0  0  0  0  0  0  0  0  0  0  0
    3.9458   -1.8467    0.5428 C   0  0  0  0  0  0  0  0  0  0  0  0
    2.5721   -1.5775    0.6223 C   0  0  0  0  0  0  0  0  0  0  0  0
    1.7084   -2.5267    1.1829 C   0  0  0  0  0  0  0  0  0  0  0  0
    0.3474   -2.2583    1.2958 C   0  0  0  0  0  0  0  0  0  0  0  0
   -0.1764   -1.0506    0.8354 C   0  0  0  0  0  0  0  0  0  0  0  0
    0.6605   -0.0955    0.2133 C   0  0  0  0  0  0  0  0  0  0  0  0
    2.0596   -0.3425    0.1443 C   0  0  0  0  0  0  0  0  0  0  0  0
    2.9665    0.6071   -0.3759 C   0  0  0  0  0  0  0  0  0  0  0  0
    0.0438    1.1889   -0.3210 C   0  0  0  0  0  0  0  0  0  0  0  0
   -1.4881    1.1035   -0.5065 C   0  0  0  0  0  0  0  0  0  0  0  0
   -1.8370    0.3513   -1.7180 N   0  0  0  0  0  0  0  0  0  0  0  0
   -2.1271    0.4664    0.7409 C   0  0  0  0  0  0  0  0  0  0  0  0
   -3.6317    0.3579    0.6075 C   0  0  0  0  0  0  0  0  0  0  0  0
   -4.2225   -0.7875    0.0396 C   0  0  0  0  0  0  0  0  0  0  0  0
   -5.6096   -0.8671   -0.1124 C   0  0  0  0  0  0  0  0  0  0  0  0
   -6.4205    0.1967    0.2882 C   0  0  0  0  0  0  0  0  0  0  0  0
   -5.8454    1.3454    0.8362 C   0  0  0  0  0  0  0  0  0  0  0  0
   -4.4579    1.4328    0.9913 C   0  0  0  0  0  0  0  0  0  0  0  0
   -3.9222    2.5668    1.5103 F   0  0  0  0  0  0  0  0  0  0  0  0
   -1.5471   -0.8138    0.9844 O   0  0  0  0  0  0  0  0  0  0  0  0
    7.0595    1.0330   -0.1176 H   0  0  0  0  0  0  0  0  0  0  0  0
    6.8329    0.3303   -1.7824 H   0  0  0  0  0  0  0  0  0  0  0  0
    7.0065    2.1118   -1.5618 H   0  0  0  0  0  0  0  0  0  0  0  0
    5.8751   -1.1403   -0.0358 H   0  0  0  0  0  0  0  0  0  0  0  0
    4.3450   -2.7890    0.8996 H   0  0  0  0  0  0  0  0  0  0  0  0
    2.0895   -3.4723    1.5505 H   0  0  0  0  0  0  0  0  0  0  0  0
   -0.3064   -2.9917    1.7505 H   0  0  0  0  0  0  0  0  0  0  0  0
    2.6325    1.5764   -0.7178 H   0  0  0  0  0  0  0  0  0  0  0  0
    0.2763    2.0090    0.3926 H   0  0  0  0  0  0  0  0  0  0  0  0
    0.4905    1.4528   -1.3029 H   0  0  0  0  0  0  0  0  0  0  0  0
   -1.8826    2.1392   -0.6131 H   0  0  0  0  0  0  0  0  0  0  0  0
   -1.3486   -0.5735   -1.7174 H   0  0  0  0  0  0  0  0  0  0  0  0
   -1.4963    0.8826   -2.5520 H   0  0  0  0  0  0  0  0  0  0  0  0
   -1.8901    1.1079    1.6192 H   0  0  0  0  0  0  0  0  0  0  0  0
   -3.6113   -1.6180   -0.2906 H   0  0  0  0  0  0  0  0  0  0  0  0
   -6.0559   -1.7529   -0.5456 H   0  0  0  0  0  0  0  0  0  0  0  0
   -7.4943    0.1337    0.1681 H   0  0  0  0  0  0  0  0  0  0  0  0
   -6.4765    2.1718    1.1370 H   0  0  0  0  0  0  0  0  0  0  0  0
  1  2  1  0
  2  3  1  0
  3  4  2  0
  4  5  1  0
  5  6  2  0
  6  7  1  0
  7  8  2  0
  8  9  1  0
  9 10  2  0
 10 11  1  0
 11 12  2  0
 10 13  1  0
 13 14  1  0
 14 15  1  0
 14 16  1  0
 16 17  1  0
 17 18  2  0
 18 19  1  0
 19 20  2  0
 20 21  1  0
 21 22  2  0
 22 23  1  0
 16 24  1  0
 12  3  1  0
 22 17  1  0
 11  6  1  0
 24  9  1  0
  1 25  1  0
  1 26  1  0
  1 27  1  0
  4 28  1  0
  5 29  1  0
  7 30  1  0
  8 31  1  0
 12 32  1  0
 13 33  1  0
 13 34  1  0
 14 35  1  0
 15 36  1  0
 15 37  1  0
 16 38  1  0
 18 39  1  0
 19 40  1  0
 20 41  1  0
 21 42  1  0
M  END
$$$$
