
     RDKit          3D

 57 60  0  0  0  0  0  0  0  0999 V2000
   -7.4351    1.0169   -1.8156 C   0  0  0  0  0  0  0  0  0  0  0  0
   -6.7518    0.3597   -0.7531 O   0  0  0  0  0  0  0  0  0  0  0  0
   -5.3559    0.2439   -0.6546 C   0  0  0  0  0  0  0  0  0  0  0  0
   -4.4924    0.7731   -1.6285 C   0  0  0  0  0  0  0  0  0  0  0  0
   -3.1027    0.6415   -1.5026 C   0  0  0  0  0  0  0  0  0  0  0  0
   -2.5507    0.0348   -0.3514 C   0  0  0  0  0  0  0  0  0  0  0  0
   -3.4255   -0.5514    0.5841 C   0  0  0  0  0  0  0  0  0  0  0  0
   -4.8213   -0.4336    0.4477 C   0  0  0  0  0  0  0  0  0  0  0  0
   -5.7114   -0.9812    1.3860 O   0  0  0  0  0  0  0  0  0  0  0  0
   -5.3184   -1.6895    2.5572 C   0  0  0  0  0  0  0  0  0  0  0  0
   -1.0343   -0.1257   -0.2066 C   0  0  2  0  0  0  0  0  0  0  0  0
   -0.5519    0.2465    1.2146 C   0  0  0  0  0  0  0  0  0  0  0  0
    0.9681    0.0308    1.3572 C   0  0  2  0  0  0  0  0  0  0  0  0
    1.4092    0.5086    2.6714 N   0  0  0  0  0  0  0  0  0  0  0  0
    1.7236    0.7792    0.2310 C   0  0  1  0  0  0  0  0  0  0  0  0
    3.2202    0.5138    0.2668 C   0  0  0  0  0  0  0  0  0  0  0  0
    4.1138    1.5772    0.4626 C   0  0  0  0  0  0  0  0  0  0  0  0
    5.4900    1.3505    0.4993 C   0  0  0  0  0  0  0  0  0  0  0  0
    6.0071    0.0556    0.3388 C   0  0  0  0  0  0  0  0  0  0  0  0
    7.4977   -0.1555    0.3884 C   0  0  0  0  0  0  0  0  0  0  0  0
    5.1172   -1.0277    0.1499 C   0  0  0  0  0  0  0  0  0  0  0  0
    5.6266   -2.4346   -0.0262 C   0  0  0  0  0  0  0  0  0  0  0  0
    3.7332   -0.7863    0.1093 C   0  0  0  0  0  0  0  0  0  0  0  0
    1.1426    0.4166   -1.1475 C   0  0  0  0  0  0  0  0  0  0  0  0
   -0.2996    0.7228   -1.1784 N   0  0  0  0  0  0  0  0  0  0  0  0
   -0.8336    0.5564   -2.5379 C   0  0  0  0  0  0  0  0  0  0  0  0
   -2.2215    1.1815   -2.5963 C   0  0  0  0  0  0  0  0  0  0  0  0
   -8.5277    0.9611   -1.6330 H   0  0  0  0  0  0  0  0  0  0  0  0
   -7.2105    0.5167   -2.7813 H   0  0  0  0  0  0  0  0  0  0  0  0
   -7.1362    2.0856   -1.8588 H   0  0  0  0  0  0  0  0  0  0  0  0
   -4.8933    1.2771   -2.4980 H   0  0  0  0  0  0  0  0  0  0  0  0
   -3.0236   -1.1155    1.4106 H   0  0  0  0  0  0  0  0  0  0  0  0
   -4.7013   -1.0364    3.2099 H   0  0  0  0  0  0  0  0  0  0  0  0
   -4.7492   -2.6016    2.2790 H   0  0  0  0  0  0  0  0  0  0  0  0
   -6.2257   -1.9952    3.1172 H   0  0  0  0  0  0  0  0  0  0  0  0
   -0.8039   -1.2012   -0.3899 H   0  0  0  0  0  0  0  0  0  0  0  0
   -1.0516   -0.3793    1.9811 H   0  0  0  0  0  0  0  0  0  0  0  0
   -0.8020    1.3110    1.4218 H   0  0  0  0  0  0  0  0  0  0  0  0
    1.1669   -1.0627    1.2820 H   0  0  0  0  0  0  0  0  0  0  0  0
    2.4082    0.2327    2.8097 H   0  0  0  0  0  0  0  0  0  0  0  0
    0.8744   -0.0061    3.4086 H   0  0  0  0  0  0  0  0  0  0  0  0
    1.5428    1.8688    0.3794 H   0  0  0  0  0  0  0  0  0  0  0  0
    3.7469    2.5882    0.5890 H   0  0  0  0  0  0  0  0  0  0  0  0
    6.1536    2.1926    0.6531 H   0  0  0  0  0  0  0  0  0  0  0  0
    7.8397   -0.6683   -0.5347 H   0  0  0  0  0  0  0  0  0  0  0  0
    8.0460    0.8075    0.4652 H   0  0  0  0  0  0  0  0  0  0  0  0
    7.7595   -0.7740    1.2722 H   0  0  0  0  0  0  0  0  0  0  0  0
    6.2688   -2.7166    0.8341 H   0  0  0  0  0  0  0  0  0  0  0  0
    4.7949   -3.1687   -0.0837 H   0  0  0  0  0  0  0  0  0  0  0  0
    6.2154   -2.5051   -0.9645 H   0  0  0  0  0  0  0  0  0  0  0  0
    3.0532   -1.6146   -0.0442 H   0  0  0  0  0  0  0  0  0  0  0  0
    1.3166   -0.6578   -1.3840 H   0  0  0  0  0  0  0  0  0  0  0  0
    1.6749    1.0256   -1.9126 H   0  0  0  0  0  0  0  0  0  0  0  0
   -0.8817   -0.5210   -2.8190 H   0  0  0  0  0  0  0  0  0  0  0  0
   -0.1925    1.0818   -3.2804 H   0  0  0  0  0  0  0  0  0  0  0  0
   -2.1368    2.2835   -2.4776 H   0  0  0  0  0  0  0  0  0  0  0  0
   -2.6692    0.9681   -3.5915 H   0  0  0  0  0  0  0  0  0  0  0  0
  1  2  1  0
  2  3  1  0
  3  4  2  0
  4  5  1  0
  5  6  2  0
  6  7  1  0
  7  8  2  0
  8  9  1  0
  9 10  1  0
  6 11  1  0
 11 12  1  0
 12 13  1  0
 13 14  1  0
 13 15  1  0
 15 16  1  0
 16 17  2  0
 17 18  1  0
 18 19  2  0
 19 20  1  0
 19 21  1  0
 21 22  1  0
 21 23  2  0
 15 24  1  0
 24 25  1  0
 25 26  1  0
 26 27  1  0
  8  3  1  0
 25 11  1  0
 27  5  1  0
 23 16  1  0
  1 28  1  0
  1 29  1  0
  1 30  1  0
  4 31  1  0
  7 32  1  0
 10 33  1  0
 10 34  1  0
 10 35  1  0
 11 36  1  6
 12 37  1  0
 12 38  1  0
 13 39  1  1
 14 40  1  0
 14 41  1  0
 15 42  1  1
 17 43  1  0
 18 44  1  0
 20 45  1  0
 20 46  1  0
 20 47  1  0
 22 48  1  0
 22 49  1  0
 22 50  1  0
 23 51  1  0
 24 52  1  0
 24 53  1  0
 26 54  1  0
 26 55  1  0
 27 56  1  0
 27 57  1  0
M  END
$$$$
