
     RDKit          3D

 38 39  0  0  0  0  0  0  0  0999 V2000
   -0.4238   -2.1189    1.0707 O   0  0  0  0  0  0  0  0  0  0  0  0
   -0.6567   -1.3295    0.1143 C   0  0  0  0  0  0  0  0  0  0  0  0
    0.4637   -0.9730   -0.8300 C   0  0  0  0  0  0  0  0  0  0  0  0
    1.7761   -1.1804   -0.1987 N   0  0  0  0  0  0  0  0  0  0  0  0
    2.1562   -0.0589    0.6836 C   0  0  0  0  0  0  0  0  0  0  0  0
    3.3144   -0.4827    1.5883 C   0  0  0  0  0  0  0  0  0  0  0  0
    4.5615    0.1380    0.9881 C   0  0  0  0  0  0  0  0  0  0  0  0
    4.0907    1.4251    0.3393 C   0  0  0  0  0  0  0  0  0  0  0  0
    2.6569    1.1670   -0.1067 C   0  0  0  0  0  0  0  0  0  0  0  0
   -2.0064   -0.8749   -0.1092 N   0  0  0  0  0  0  0  0  0  0  0  0
   -3.1487   -1.5396    0.5018 C   0  0  0  0  0  0  0  0  0  0  0  0
   -4.3847   -0.8929   -0.1111 C   0  0  0  0  0  0  0  0  0  0  0  0
   -3.8846   -0.1688   -1.3570 C   0  0  0  0  0  0  0  0  0  0  0  0
   -2.4086    0.1328   -1.0843 C   0  0  1  0  0  0  0  0  0  0  0  0
   -2.1883    1.6083   -0.4689 B   0  0  0  0  0  0  0  0  0  0  0  0
   -3.3293    2.4528   -0.1178 O   0  0  0  0  0  0  0  0  0  0  0  0
   -0.8373    2.1040   -0.2226 O   0  0  0  0  0  0  0  0  0  0  0  0
    0.3777   -1.6405   -1.7144 H   0  0  0  0  0  0  0  0  0  0  0  0
    0.3666    0.0680   -1.1980 H   0  0  0  0  0  0  0  0  0  0  0  0
    2.4989   -1.3037   -0.9469 H   0  0  0  0  0  0  0  0  0  0  0  0
    1.2954    0.2293    1.3293 H   0  0  0  0  0  0  0  0  0  0  0  0
    3.4137   -1.5878    1.6648 H   0  0  0  0  0  0  0  0  0  0  0  0
    3.1588   -0.0706    2.6104 H   0  0  0  0  0  0  0  0  0  0  0  0
    4.9795   -0.5408    0.2120 H   0  0  0  0  0  0  0  0  0  0  0  0
    5.3337    0.3318    1.7638 H   0  0  0  0  0  0  0  0  0  0  0  0
    4.1072    2.2457    1.0906 H   0  0  0  0  0  0  0  0  0  0  0  0
    4.7409    1.7035   -0.5183 H   0  0  0  0  0  0  0  0  0  0  0  0
    2.0239    2.0553    0.1078 H   0  0  0  0  0  0  0  0  0  0  0  0
    2.6382    0.9878   -1.2040 H   0  0  0  0  0  0  0  0  0  0  0  0
   -3.1333   -1.3992    1.6043 H   0  0  0  0  0  0  0  0  0  0  0  0
   -3.1249   -2.6243    0.2580 H   0  0  0  0  0  0  0  0  0  0  0  0
   -4.8137   -0.1538    0.6006 H   0  0  0  0  0  0  0  0  0  0  0  0
   -5.1583   -1.6497   -0.3653 H   0  0  0  0  0  0  0  0  0  0  0  0
   -4.4975    0.7294   -1.5891 H   0  0  0  0  0  0  0  0  0  0  0  0
   -3.9557   -0.8629   -2.2238 H   0  0  0  0  0  0  0  0  0  0  0  0
   -1.8366    0.0286   -2.0310 H   0  0  0  0  0  0  0  0  0  0  0  0
   -3.5316    2.2212    0.8238 H   0  0  0  0  0  0  0  0  0  0  0  0
   -0.6338    1.8242    0.7054 H   0  0  0  0  0  0  0  0  0  0  0  0
  1  2  2  0
  2  3  1  0
  3  4  1  0
  4  5  1  0
  5  6  1  0
  6  7  1  0
  7  8  1  0
  8  9  1  0
  2 10  1  0
 10 11  1  0
 11 12  1  0
 12 13  1  0
 13 14  1  0
 14 15  1  0
 15 16  1  0
 15 17  1  0
  9  5  1  0
 14 10  1  0
  3 18  1  0
  3 19  1  0
  4 20  1  0
  5 21  1  0
  6 22  1  0
  6 23  1  0
  7 24  1  0
  7 25  1  0
  8 26  1  0
  8 27  1  0
  9 28  1  0
  9 29  1  0
 11 30  1  0
 11 31  1  0
 12 32  1  0
 12 33  1  0
 13 34  1  0
 13 35  1  0
 14 36  1  6
 16 37  1  0
 17 38  1  0
M  END
$$$$
