
     RDKit          3D

 33 33  0  0  0  0  0  0  0  0999 V2000
    3.6012    1.7745    0.0258 C   0  0  0  0  0  0  0  0  0  0  0  0
    3.8230    0.3247   -0.4048 C   0  0  0  0  0  0  0  0  0  0  0  0
    2.7117   -0.6178    0.0829 C   0  0  0  0  0  0  0  0  0  0  0  0
    1.3833   -0.3980   -0.6601 C   0  0  0  0  0  0  0  0  0  0  0  0
    0.3061   -1.4044   -0.2151 C   0  0  2  0  0  0  0  0  0  0  0  0
    0.6916   -2.7698   -0.5871 N   0  0  0  0  0  0  0  0  0  0  0  0
   -1.0317   -1.0308   -0.8221 C   0  0  0  0  0  0  0  0  0  0  0  0
   -1.2953   -1.3954   -2.0010 O   0  0  0  0  0  0  0  0  0  0  0  0
   -1.9809   -0.2156   -0.1089 N   0  0  0  0  0  0  0  0  0  0  0  0
   -3.2680    0.1591   -0.6687 C   0  0  0  0  0  0  0  0  0  0  0  0
   -4.0038    0.8929    0.4442 C   0  0  0  0  0  0  0  0  0  0  0  0
   -2.9369    1.2806    1.4641 C   0  0  0  0  0  0  0  0  0  0  0  0
   -1.7630    0.3432    1.2155 C   0  0  0  0  0  0  0  0  0  0  0  0
    4.4920    2.3795   -0.2453 H   0  0  0  0  0  0  0  0  0  0  0  0
    2.7205    2.2088   -0.4905 H   0  0  0  0  0  0  0  0  0  0  0  0
    3.4544    1.8361    1.1251 H   0  0  0  0  0  0  0  0  0  0  0  0
    3.9104    0.2735   -1.5119 H   0  0  0  0  0  0  0  0  0  0  0  0
    4.7886   -0.0208    0.0242 H   0  0  0  0  0  0  0  0  0  0  0  0
    3.0538   -1.6618   -0.0858 H   0  0  0  0  0  0  0  0  0  0  0  0
    2.5604   -0.4859    1.1768 H   0  0  0  0  0  0  0  0  0  0  0  0
    1.5476   -0.4875   -1.7568 H   0  0  0  0  0  0  0  0  0  0  0  0
    1.0174    0.6300   -0.4517 H   0  0  0  0  0  0  0  0  0  0  0  0
    0.2280   -1.3696    0.8922 H   0  0  0  0  0  0  0  0  0  0  0  0
   -0.0606   -3.4281   -0.2779 H   0  0  0  0  0  0  0  0  0  0  0  0
    0.7727   -2.8466   -1.6275 H   0  0  0  0  0  0  0  0  0  0  0  0
   -3.8342   -0.7455   -0.9808 H   0  0  0  0  0  0  0  0  0  0  0  0
   -3.1135    0.8294   -1.5421 H   0  0  0  0  0  0  0  0  0  0  0  0
   -4.5371    1.7878    0.0563 H   0  0  0  0  0  0  0  0  0  0  0  0
   -4.7391    0.2073    0.9204 H   0  0  0  0  0  0  0  0  0  0  0  0
   -3.3180    1.1865    2.5042 H   0  0  0  0  0  0  0  0  0  0  0  0
   -2.6193    2.3316    1.2855 H   0  0  0  0  0  0  0  0  0  0  0  0
   -1.7556   -0.4739    1.9690 H   0  0  0  0  0  0  0  0  0  0  0  0
   -0.8055    0.9062    1.2517 H   0  0  0  0  0  0  0  0  0  0  0  0
  1  2  1  0
  2  3  1  0
  3  4  1  0
  4  5  1  0
  5  6  1  0
  5  7  1  0
  7  8  2  0
  7  9  1  0
  9 10  1  0
 10 11  1  0
 11 12  1  0
 12 13  1  0
 13  9  1  0
  1 14  1  0
  1 15  1  0
  1 16  1  0
  2 17  1  0
  2 18  1  0
  3 19  1  0
  3 20  1  0
  4 21  1  0
  4 22  1  0
  5 23  1  1
  6 24  1  0
  6 25  1  0
 10 26  1  0
 10 27  1  0
 11 28  1  0
 11 29  1  0
 12 30  1  0
 12 31  1  0
 13 32  1  0
 13 33  1  0
M  END
$$$$
