
     RDKit          3D

 51 54  0  0  0  0  0  0  0  0999 V2000
    5.0709   -0.3498   -2.1991 C   0  0  0  0  0  0  0  0  0  0  0  0
    4.6762    0.3291   -0.9663 N   0  0  0  0  0  0  0  0  0  0  0  0
    5.3972    0.4984    0.1765 C   0  0  0  0  0  0  0  0  0  0  0  0
    6.8299    0.1669    0.3387 C   0  0  0  0  0  0  0  0  0  0  0  0
    7.4659    0.3150    1.6094 N   0  0  0  0  0  0  0  0  0  0  0  0
    7.5066   -0.2454   -0.6397 O   0  0  0  0  0  0  0  0  0  0  0  0
    4.6264    0.8913    1.2225 N   0  0  0  0  0  0  0  0  0  0  0  0
    3.4123    1.0452    0.6629 C   0  0  0  0  0  0  0  0  0  0  0  0
    3.4297    0.6933   -0.6200 C   0  0  0  0  0  0  0  0  0  0  0  0
    2.1396    0.0887   -1.0124 C   0  0  0  0  0  0  0  0  0  0  0  0
    1.3767   -0.0539    0.2620 N   0  0  0  0  0  0  0  0  0  0  0  0
   -0.0647    0.2916    0.1154 C   0  0  2  0  0  0  0  0  0  0  0  0
   -0.8007    0.3437    1.4759 C   0  0  0  0  0  0  0  0  0  0  0  0
   -2.3043    0.5866    1.2809 C   0  0  2  0  0  0  0  0  0  0  0  0
   -2.9912    0.4707    2.5717 N   0  0  0  0  0  0  0  0  0  0  0  0
   -2.8736   -0.4343    0.2670 C   0  0  1  0  0  0  0  0  0  0  0  0
   -4.3409   -0.1637   -0.0052 C   0  0  0  0  0  0  0  0  0  0  0  0
   -5.3251   -1.0073    0.5439 C   0  0  0  0  0  0  0  0  0  0  0  0
   -6.6816   -0.7560    0.3173 C   0  0  0  0  0  0  0  0  0  0  0  0
   -7.6206   -1.5760    0.8505 F   0  0  0  0  0  0  0  0  0  0  0  0
   -7.0710    0.3404   -0.4549 C   0  0  0  0  0  0  0  0  0  0  0  0
   -6.1055    1.1890   -1.0005 C   0  0  0  0  0  0  0  0  0  0  0  0
   -4.7464    0.9449   -0.7782 C   0  0  0  0  0  0  0  0  0  0  0  0
   -3.8305    1.7892   -1.3172 F   0  0  0  0  0  0  0  0  0  0  0  0
   -2.1771   -0.3800   -0.9683 O   0  0  0  0  0  0  0  0  0  0  0  0
   -0.7989   -0.7016   -0.8430 C   0  0  2  0  0  0  0  0  0  0  0  0
   -0.5728   -2.2198   -0.5864 C   0  0  0  0  0  0  0  0  0  0  0  0
   -0.6523   -2.5470    0.7530 F   0  0  0  0  0  0  0  0  0  0  0  0
    0.6692   -2.6086   -1.0484 F   0  0  0  0  0  0  0  0  0  0  0  0
   -1.5262   -2.9497   -1.2744 F   0  0  0  0  0  0  0  0  0  0  0  0
    2.0956    0.7795    1.2658 C   0  0  0  0  0  0  0  0  0  0  0  0
    5.9721    0.1353   -2.6274 H   0  0  0  0  0  0  0  0  0  0  0  0
    5.2801   -1.4196   -1.9886 H   0  0  0  0  0  0  0  0  0  0  0  0
    4.2606   -0.2828   -2.9560 H   0  0  0  0  0  0  0  0  0  0  0  0
    6.9392    0.6584    2.4427 H   0  0  0  0  0  0  0  0  0  0  0  0
    8.4774    0.0801    1.7198 H   0  0  0  0  0  0  0  0  0  0  0  0
    1.6399    0.7660   -1.7394 H   0  0  0  0  0  0  0  0  0  0  0  0
    2.3120   -0.9043   -1.4715 H   0  0  0  0  0  0  0  0  0  0  0  0
   -0.1493    1.3106   -0.3300 H   0  0  0  0  0  0  0  0  0  0  0  0
   -0.6307   -0.5871    2.0544 H   0  0  0  0  0  0  0  0  0  0  0  0
   -0.4126    1.1779    2.0955 H   0  0  0  0  0  0  0  0  0  0  0  0
   -2.4405    1.6191    0.8846 H   0  0  0  0  0  0  0  0  0  0  0  0
   -3.9746    0.8074    2.4588 H   0  0  0  0  0  0  0  0  0  0  0  0
   -2.5487    1.1371    3.2459 H   0  0  0  0  0  0  0  0  0  0  0  0
   -2.7913   -1.4538    0.7020 H   0  0  0  0  0  0  0  0  0  0  0  0
   -5.0431   -1.8580    1.1518 H   0  0  0  0  0  0  0  0  0  0  0  0
   -8.1214    0.5349   -0.6295 H   0  0  0  0  0  0  0  0  0  0  0  0
   -6.4119    2.0395   -1.5959 H   0  0  0  0  0  0  0  0  0  0  0  0
   -0.3772   -0.5195   -1.8545 H   0  0  0  0  0  0  0  0  0  0  0  0
    1.6084    1.7649    1.4289 H   0  0  0  0  0  0  0  0  0  0  0  0
    2.1989    0.2235    2.2217 H   0  0  0  0  0  0  0  0  0  0  0  0
  1  2  1  0
  2  3  1  0
  3  4  1  0
  4  5  1  0
  4  6  2  0
  3  7  2  0
  7  8  1  0
  8  9  2  0
  9 10  1  0
 10 11  1  0
 11 12  1  0
 12 13  1  0
 13 14  1  0
 14 15  1  0
 14 16  1  0
 16 17  1  0
 17 18  2  0
 18 19  1  0
 19 20  1  0
 19 21  2  0
 21 22  1  0
 22 23  2  0
 23 24  1  0
 16 25  1  0
 25 26  1  0
 26 27  1  0
 27 28  1  0
 27 29  1  0
 27 30  1  0
 11 31  1  0
  9  2  1  0
 26 12  1  0
 31  8  1  0
 23 17  1  0
  1 32  1  0
  1 33  1  0
  1 34  1  0
  5 35  1  0
  5 36  1  0
 10 37  1  0
 10 38  1  0
 12 39  1  6
 13 40  1  0
 13 41  1  0
 14 42  1  6
 15 43  1  0
 15 44  1  0
 16 45  1  1
 18 46  1  0
 21 47  1  0
 22 48  1  0
 26 49  1  6
 31 50  1  0
 31 51  1  0
M  END
$$$$
