
     RDKit          3D

 35 36  0  0  0  0  0  0  0  0999 V2000
   -2.2719   -0.4827   -2.7261 N   0  0  0  0  0  0  0  0  0  0  0  0
   -2.4373   -0.4620   -1.5807 C   0  0  0  0  0  0  0  0  0  0  0  0
   -2.6619   -0.4362   -0.1259 C   0  0  2  0  0  0  0  0  0  0  0  0
   -3.7831    0.5531    0.2132 C   0  0  0  0  0  0  0  0  0  0  0  0
   -3.2711    1.3804    1.3853 C   0  0  2  0  0  0  0  0  0  0  0  0
   -3.6382    2.7098    1.2585 F   0  0  0  0  0  0  0  0  0  0  0  0
   -1.7580    1.2293    1.3736 C   0  0  0  0  0  0  0  0  0  0  0  0
   -1.4766    0.0307    0.5928 N   0  0  0  0  0  0  0  0  0  0  0  0
   -0.3062   -0.7763    0.8684 C   0  0  0  0  0  0  0  0  0  0  0  0
    0.2845   -0.6433    1.9752 O   0  0  0  0  0  0  0  0  0  0  0  0
    0.3150   -1.7147   -0.1464 C   0  0  1  0  0  0  0  0  0  0  0  0
   -0.6748   -2.6551   -0.6700 N   0  0  0  0  0  0  0  0  0  0  0  0
    0.9881   -0.9311   -1.2918 C   0  0  0  0  0  0  0  0  0  0  0  0
    2.1353   -0.0863   -0.7919 C   0  0  0  0  0  0  0  0  0  0  0  0
    1.9310    1.2727   -0.4957 C   0  0  0  0  0  0  0  0  0  0  0  0
    2.9796    2.0525    0.0003 C   0  0  0  0  0  0  0  0  0  0  0  0
    4.2381    1.4828    0.2097 C   0  0  0  0  0  0  0  0  0  0  0  0
    5.2536    2.2406    0.6920 F   0  0  0  0  0  0  0  0  0  0  0  0
    4.4489    0.1306   -0.0741 C   0  0  0  0  0  0  0  0  0  0  0  0
    3.4032   -0.6556   -0.5696 C   0  0  0  0  0  0  0  0  0  0  0  0
    3.6259   -1.9691   -0.8289 F   0  0  0  0  0  0  0  0  0  0  0  0
   -2.9415   -1.4512    0.2302 H   0  0  0  0  0  0  0  0  0  0  0  0
   -4.7169    0.0157    0.4887 H   0  0  0  0  0  0  0  0  0  0  0  0
   -4.0104    1.2329   -0.6401 H   0  0  0  0  0  0  0  0  0  0  0  0
   -3.6817    0.9728    2.3355 H   0  0  0  0  0  0  0  0  0  0  0  0
   -1.2715    2.1028    0.8883 H   0  0  0  0  0  0  0  0  0  0  0  0
   -1.3895    1.1354    2.4182 H   0  0  0  0  0  0  0  0  0  0  0  0
    1.1072   -2.3091    0.3669 H   0  0  0  0  0  0  0  0  0  0  0  0
   -1.0483   -3.2164    0.1303 H   0  0  0  0  0  0  0  0  0  0  0  0
   -0.1872   -3.3367   -1.2960 H   0  0  0  0  0  0  0  0  0  0  0  0
    0.2491   -0.2871   -1.8091 H   0  0  0  0  0  0  0  0  0  0  0  0
    1.3699   -1.6440   -2.0548 H   0  0  0  0  0  0  0  0  0  0  0  0
    0.9590    1.7266   -0.6444 H   0  0  0  0  0  0  0  0  0  0  0  0
    2.8143    3.0984    0.2250 H   0  0  0  0  0  0  0  0  0  0  0  0
    5.4233   -0.3103    0.0933 H   0  0  0  0  0  0  0  0  0  0  0  0
  1  2  3  0
  2  3  1  0
  3  4  1  0
  4  5  1  0
  5  6  1  0
  5  7  1  0
  7  8  1  0
  8  9  1  0
  9 10  2  0
  9 11  1  0
 11 12  1  0
 11 13  1  0
 13 14  1  0
 14 15  2  0
 15 16  1  0
 16 17  2  0
 17 18  1  0
 17 19  1  0
 19 20  2  0
 20 21  1  0
  8  3  1  0
 20 14  1  0
  3 22  1  1
  4 23  1  0
  4 24  1  0
  5 25  1  1
  7 26  1  0
  7 27  1  0
 11 28  1  1
 12 29  1  0
 12 30  1  0
 13 31  1  0
 13 32  1  0
 15 33  1  0
 16 34  1  0
 19 35  1  0
M  END
$$$$
