
     RDKit          3D

 38 39  0  0  0  0  0  0  0  0999 V2000
    3.2572    1.2572    0.3688 C   0  0  0  0  0  0  0  0  0  0  0  0
    2.3392    0.0203    0.4508 C   0  0  0  0  0  0  0  0  0  0  0  0
    2.0456   -0.4911   -0.9809 C   0  0  0  0  0  0  0  0  0  0  0  0
    2.9862   -1.0920    1.2727 C   0  0  0  0  0  0  0  0  0  0  0  0
    1.8170   -1.8278    1.9168 C   0  0  0  0  0  0  0  0  0  0  0  0
    0.6436   -0.9493    1.8901 N   0  0  0  0  0  0  0  0  0  0  0  0
    1.0613    0.3094    1.2702 C   0  0  2  0  0  0  0  0  0  0  0  0
   -0.0496    0.9827    0.4822 C   0  0  0  0  0  0  0  0  0  0  0  0
    0.0086    2.2372    0.3648 O   0  0  0  0  0  0  0  0  0  0  0  0
   -1.1024    0.2670   -0.2085 N   0  0  0  0  0  0  0  0  0  0  0  0
   -1.5154   -1.1066    0.0544 C   0  0  0  0  0  0  0  0  0  0  0  0
   -2.6734   -1.3876   -0.8952 C   0  0  0  0  0  0  0  0  0  0  0  0
   -2.6028   -0.2980   -1.9582 C   0  0  0  0  0  0  0  0  0  0  0  0
   -1.8679    0.8671   -1.2959 C   0  0  1  0  0  0  0  0  0  0  0  0
   -2.8963    1.9619   -0.7244 B   0  0  0  0  0  0  0  0  0  0  0  0
   -3.8472    1.6019    0.3253 O   0  0  0  0  0  0  0  0  0  0  0  0
   -2.8623    3.3298   -1.2349 O   0  0  0  0  0  0  0  0  0  0  0  0
    2.7618    2.0690   -0.2052 H   0  0  0  0  0  0  0  0  0  0  0  0
    3.5005    1.6453    1.3814 H   0  0  0  0  0  0  0  0  0  0  0  0
    4.2108    0.9976   -0.1393 H   0  0  0  0  0  0  0  0  0  0  0  0
    1.4204   -1.4060   -0.9612 H   0  0  0  0  0  0  0  0  0  0  0  0
    2.9943   -0.7432   -1.5018 H   0  0  0  0  0  0  0  0  0  0  0  0
    1.5273    0.2846   -1.5837 H   0  0  0  0  0  0  0  0  0  0  0  0
    3.6122   -1.7780    0.6599 H   0  0  0  0  0  0  0  0  0  0  0  0
    3.6242   -0.6669    2.0801 H   0  0  0  0  0  0  0  0  0  0  0  0
    1.5861   -2.7452    1.3340 H   0  0  0  0  0  0  0  0  0  0  0  0
    2.0711   -2.1288    2.9582 H   0  0  0  0  0  0  0  0  0  0  0  0
    0.3276   -0.7637    2.8717 H   0  0  0  0  0  0  0  0  0  0  0  0
    1.3340    1.0119    2.0951 H   0  0  0  0  0  0  0  0  0  0  0  0
   -1.8507   -1.2150    1.1083 H   0  0  0  0  0  0  0  0  0  0  0  0
   -0.6847   -1.8082   -0.1613 H   0  0  0  0  0  0  0  0  0  0  0  0
   -3.6372   -1.3072   -0.3460 H   0  0  0  0  0  0  0  0  0  0  0  0
   -2.5943   -2.4000   -1.3477 H   0  0  0  0  0  0  0  0  0  0  0  0
   -3.6142   -0.0321   -2.3395 H   0  0  0  0  0  0  0  0  0  0  0  0
   -1.9958   -0.6699   -2.8133 H   0  0  0  0  0  0  0  0  0  0  0  0
   -1.1833    1.3450   -2.0307 H   0  0  0  0  0  0  0  0  0  0  0  0
   -4.6560    1.3009   -0.1607 H   0  0  0  0  0  0  0  0  0  0  0  0
   -3.4956    3.3280   -1.9964 H   0  0  0  0  0  0  0  0  0  0  0  0
  1  2  1  0
  2  3  1  0
  2  4  1  0
  4  5  1  0
  5  6  1  0
  6  7  1  0
  7  8  1  0
  8  9  2  0
  8 10  1  0
 10 11  1  0
 11 12  1  0
 12 13  1  0
 13 14  1  0
 14 15  1  0
 15 16  1  0
 15 17  1  0
  7  2  1  0
 14 10  1  0
  1 18  1  0
  1 19  1  0
  1 20  1  0
  3 21  1  0
  3 22  1  0
  3 23  1  0
  4 24  1  0
  4 25  1  0
  5 26  1  0
  5 27  1  0
  6 28  1  0
  7 29  1  1
 11 30  1  0
 11 31  1  0
 12 32  1  0
 12 33  1  0
 13 34  1  0
 13 35  1  0
 14 36  1  6
 16 37  1  0
 17 38  1  0
M  END
$$$$
