
     RDKit          3D

 81 85  0  0  0  0  0  0  0  0999 V2000
   -4.4223    1.2086   -3.1009 C   0  0  0  0  0  0  0  0  0  0  0  0
   -4.6716    0.9369   -1.8096 C   0  0  0  0  0  0  0  0  0  0  0  0
   -5.2448    2.0353   -0.9459 C   0  0  0  0  0  0  0  0  0  0  0  0
   -4.4011   -0.4625   -1.2509 C   0  0  2  0  0  0  0  0  0  0  0  0
   -5.6780   -1.0871   -0.6379 C   0  0  0  0  0  0  0  0  0  0  0  0
   -5.3669   -1.3803    0.8393 C   0  0  0  0  0  0  0  0  0  0  0  0
   -3.8497   -1.5761    0.8802 C   0  0  2  0  0  0  0  0  0  0  0  0
   -3.5650   -3.0489    0.5079 C   0  0  0  0  0  0  0  0  0  0  0  0
   -3.6952   -3.9264    1.4037 O   0  0  0  0  0  0  0  0  0  0  0  0
   -3.2540   -3.5009   -0.7750 O   0  0  0  0  0  0  0  0  0  0  0  0
   -3.1904   -1.2735    2.2508 C   0  0  0  0  0  0  0  0  0  0  0  0
   -1.6399   -1.3232    2.1230 C   0  0  0  0  0  0  0  0  0  0  0  0
   -1.0376   -0.3547    1.0267 C   0  0  2  0  0  0  0  0  0  0  0  0
   -1.2439    1.0998    1.6062 C   0  0  0  0  0  0  0  0  0  0  0  0
   -1.8488   -0.5456   -0.3261 C   0  0  2  0  0  0  0  0  0  0  0  0
   -1.3534    0.4065   -1.4249 C   0  0  0  0  0  0  0  0  0  0  0  0
    0.1362    0.1829   -1.7216 C   0  0  0  0  0  0  0  0  0  0  0  0
    1.0263    0.3177   -0.4502 C   0  0  2  0  0  0  0  0  0  0  0  0
    2.5993    0.3721   -0.7298 C   0  0  1  0  0  0  0  0  0  0  0  0
    3.1099   -0.9302   -1.4305 C   0  0  0  0  0  0  0  0  0  0  0  0
    2.9032    1.5835   -1.6765 C   0  0  0  0  0  0  0  0  0  0  0  0
    4.3929    1.9405   -1.7918 C   0  0  0  0  0  0  0  0  0  0  0  0
    5.0287    2.2091   -0.4193 C   0  0  2  0  0  0  0  0  0  0  0  0
    6.3802    2.5819   -0.5614 O   0  0  0  0  0  0  0  0  0  0  0  0
    4.8486    1.0275    0.5897 C   0  0  0  0  0  0  0  0  0  0  0  0
    5.7483   -0.1792    0.2174 C   0  0  0  0  0  0  0  0  0  0  0  0
    5.3260    1.5396    1.9783 C   0  0  0  0  0  0  0  0  0  0  0  0
    3.3096    0.6595    0.6529 C   0  0  2  0  0  0  0  0  0  0  0  0
    2.9283   -0.3954    1.7233 C   0  0  0  0  0  0  0  0  0  0  0  0
    1.4136   -0.3818    1.9884 C   0  0  0  0  0  0  0  0  0  0  0  0
    0.5352   -0.6457    0.7218 C   0  0  1  0  0  0  0  0  0  0  0  0
    0.7555   -2.1513    0.3359 C   0  0  0  0  0  0  0  0  0  0  0  0
   -3.3818   -0.4720   -0.0891 C   0  0  1  0  0  0  0  0  0  0  0  0
   -4.6159    2.1966   -3.5084 H   0  0  0  0  0  0  0  0  0  0  0  0
   -4.0232    0.4532   -3.7706 H   0  0  0  0  0  0  0  0  0  0  0  0
   -4.5081    2.8611   -0.8547 H   0  0  0  0  0  0  0  0  0  0  0  0
   -6.1773    2.4276   -1.4043 H   0  0  0  0  0  0  0  0  0  0  0  0
   -5.4946    1.6721    0.0718 H   0  0  0  0  0  0  0  0  0  0  0  0
   -4.0492   -1.1067   -2.0779 H   0  0  0  0  0  0  0  0  0  0  0  0
   -6.5727   -0.4325   -0.7223 H   0  0  0  0  0  0  0  0  0  0  0  0
   -5.9084   -2.0422   -1.1595 H   0  0  0  0  0  0  0  0  0  0  0  0
   -5.9313   -2.2663    1.2060 H   0  0  0  0  0  0  0  0  0  0  0  0
   -5.6621   -0.5022    1.4564 H   0  0  0  0  0  0  0  0  0  0  0  0
   -3.1376   -2.9155   -1.5831 H   0  0  0  0  0  0  0  0  0  0  0  0
   -3.5190   -2.0134    3.0127 H   0  0  0  0  0  0  0  0  0  0  0  0
   -3.5178   -0.2879    2.6421 H   0  0  0  0  0  0  0  0  0  0  0  0
   -1.1992   -1.0981    3.1178 H   0  0  0  0  0  0  0  0  0  0  0  0
   -1.3962   -2.3765    1.9134 H   0  0  0  0  0  0  0  0  0  0  0  0
   -0.7928    1.2121    2.6101 H   0  0  0  0  0  0  0  0  0  0  0  0
   -2.2964    1.3613    1.7952 H   0  0  0  0  0  0  0  0  0  0  0  0
   -0.8668    1.9119    0.9641 H   0  0  0  0  0  0  0  0  0  0  0  0
   -1.6579   -1.5568   -0.7084 H   0  0  0  0  0  0  0  0  0  0  0  0
   -1.5438    1.4660   -1.1545 H   0  0  0  0  0  0  0  0  0  0  0  0
   -1.9078    0.2036   -2.3641 H   0  0  0  0  0  0  0  0  0  0  0  0
    0.2517   -0.8106   -2.1968 H   0  0  0  0  0  0  0  0  0  0  0  0
    0.4175    0.9384   -2.4802 H   0  0  0  0  0  0  0  0  0  0  0  0
    0.8225    1.3435   -0.0976 H   0  0  0  0  0  0  0  0  0  0  0  0
    3.8330   -0.7301   -2.2435 H   0  0  0  0  0  0  0  0  0  0  0  0
    2.2993   -1.4943   -1.9240 H   0  0  0  0  0  0  0  0  0  0  0  0
    3.6206   -1.6204   -0.7357 H   0  0  0  0  0  0  0  0  0  0  0  0
    2.5469    1.3693   -2.7060 H   0  0  0  0  0  0  0  0  0  0  0  0
    2.3636    2.4908   -1.3249 H   0  0  0  0  0  0  0  0  0  0  0  0
    4.4815    2.8630   -2.4066 H   0  0  0  0  0  0  0  0  0  0  0  0
    4.9515    1.1552   -2.3383 H   0  0  0  0  0  0  0  0  0  0  0  0
    4.4993    3.0956   -0.0018 H   0  0  0  0  0  0  0  0  0  0  0  0
    6.8330    1.9028   -1.1256 H   0  0  0  0  0  0  0  0  0  0  0  0
    5.6704   -0.4538   -0.8495 H   0  0  0  0  0  0  0  0  0  0  0  0
    5.5057   -1.0662    0.8371 H   0  0  0  0  0  0  0  0  0  0  0  0
    6.8183    0.0583    0.4010 H   0  0  0  0  0  0  0  0  0  0  0  0
    5.4203    0.7123    2.7118 H   0  0  0  0  0  0  0  0  0  0  0  0
    6.3330    2.0039    1.9088 H   0  0  0  0  0  0  0  0  0  0  0  0
    4.6295    2.3030    2.3869 H   0  0  0  0  0  0  0  0  0  0  0  0
    2.8397    1.6022    1.0216 H   0  0  0  0  0  0  0  0  0  0  0  0
    3.2833   -1.4087    1.4619 H   0  0  0  0  0  0  0  0  0  0  0  0
    3.4068   -0.1541    2.6921 H   0  0  0  0  0  0  0  0  0  0  0  0
    1.1847   -1.1304    2.7775 H   0  0  0  0  0  0  0  0  0  0  0  0
    1.2067    0.6125    2.4220 H   0  0  0  0  0  0  0  0  0  0  0  0
    0.2445   -2.4584   -0.5929 H   0  0  0  0  0  0  0  0  0  0  0  0
    0.4702   -2.8437    1.1468 H   0  0  0  0  0  0  0  0  0  0  0  0
    1.8099   -2.4074    0.1882 H   0  0  0  0  0  0  0  0  0  0  0  0
   -3.5631    0.4932    0.4121 H   0  0  0  0  0  0  0  0  0  0  0  0
  1  2  2  0
  2  3  1  0
  2  4  1  0
  4  5  1  0
  5  6  1  0
  6  7  1  0
  7  8  1  6
  8  9  2  0
  8 10  1  0
  7 11  1  0
 11 12  1  0
 12 13  1  0
 13 14  1  1
 13 15  1  0
 15 16  1  0
 16 17  1  0
 17 18  1  0
 18 19  1  0
 19 20  1  6
 19 21  1  0
 21 22  1  0
 22 23  1  0
 23 24  1  0
 23 25  1  0
 25 26  1  0
 25 27  1  0
 25 28  1  0
 28 29  1  0
 29 30  1  0
 30 31  1  0
 31 32  1  6
 15 33  1  0
 33  4  1  0
 33  7  1  0
 31 13  1  0
 31 18  1  0
 28 19  1  0
  1 34  1  0
  1 35  1  0
  3 36  1  0
  3 37  1  0
  3 38  1  0
  4 39  1  6
  5 40  1  0
  5 41  1  0
  6 42  1  0
  6 43  1  0
 10 44  1  0
 11 45  1  0
 11 46  1  0
 12 47  1  0
 12 48  1  0
 14 49  1  0
 14 50  1  0
 14 51  1  0
 15 52  1  6
 16 53  1  0
 16 54  1  0
 17 55  1  0
 17 56  1  0
 18 57  1  1
 20 58  1  0
 20 59  1  0
 20 60  1  0
 21 61  1  0
 21 62  1  0
 22 63  1  0
 22 64  1  0
 23 65  1  1
 24 66  1  0
 26 67  1  0
 26 68  1  0
 26 69  1  0
 27 70  1  0
 27 71  1  0
 27 72  1  0
 28 73  1  1
 29 74  1  0
 29 75  1  0
 30 76  1  0
 30 77  1  0
 32 78  1  0
 32 79  1  0
 32 80  1  0
 33 81  1  1
M  END
$$$$
