
     RDKit          3D

 50 52  0  0  0  0  0  0  0  0999 V2000
   -3.4830   -1.9378    1.6623 N   0  0  0  0  0  0  0  0  0  0  0  0
   -2.2374   -1.3189    1.1994 C   0  0  1  0  0  0  0  0  0  0  0  0
   -1.0575   -2.3049    1.3502 C   0  0  0  0  0  0  0  0  0  0  0  0
    0.2670   -1.6107    1.1708 C   0  0  0  0  0  0  0  0  0  0  0  0
    0.7511   -0.9710    2.1438 O   0  0  0  0  0  0  0  0  0  0  0  0
    0.9540   -1.6110   -0.0955 N   0  0  0  0  0  0  0  0  0  0  0  0
    0.8113   -2.6688   -1.0821 C   0  0  0  0  0  0  0  0  0  0  0  0
    1.9975   -2.5201   -2.0234 C   0  0  0  0  0  0  0  0  0  0  0  0
    2.5320   -1.1083   -1.8061 C   0  0  0  0  0  0  0  0  0  0  0  0
    2.0108   -0.6649   -0.4328 C   0  0  1  0  0  0  0  0  0  0  0  0
    1.4671    0.7779   -0.4658 C   0  0  0  0  0  0  0  0  0  0  0  0
    2.5265    1.7261   -0.8076 N   0  0  0  0  0  0  0  0  0  0  0  0
    3.5535    2.1080    0.1159 C   0  0  0  0  0  0  0  0  0  0  0  0
    3.5577    1.6242    1.3888 N   0  0  0  0  0  0  0  0  0  0  0  0
    4.5256    1.9829    2.2714 C   0  0  0  0  0  0  0  0  0  0  0  0
    5.5337    2.8615    1.8778 C   0  0  0  0  0  0  0  0  0  0  0  0
    5.5150    3.3512    0.5727 C   0  0  0  0  0  0  0  0  0  0  0  0
    4.5298    2.9683   -0.2808 N   0  0  0  0  0  0  0  0  0  0  0  0
   -2.4010   -0.8505   -0.2613 C   0  0  0  0  0  0  0  0  0  0  0  0
   -3.4592    0.2174   -0.3808 C   0  0  0  0  0  0  0  0  0  0  0  0
   -4.7763   -0.1306   -0.7260 C   0  0  0  0  0  0  0  0  0  0  0  0
   -5.7669    0.8526   -0.8128 C   0  0  0  0  0  0  0  0  0  0  0  0
   -7.0340    0.5069   -1.1499 F   0  0  0  0  0  0  0  0  0  0  0  0
   -5.4519    2.1891   -0.5493 C   0  0  0  0  0  0  0  0  0  0  0  0
   -6.4119    3.1432   -0.6321 F   0  0  0  0  0  0  0  0  0  0  0  0
   -4.1468    2.5427   -0.1955 C   0  0  0  0  0  0  0  0  0  0  0  0
   -3.1520    1.5634   -0.1067 C   0  0  0  0  0  0  0  0  0  0  0  0
   -1.8930    1.9267    0.2475 F   0  0  0  0  0  0  0  0  0  0  0  0
   -3.3985   -2.1439    2.6843 H   0  0  0  0  0  0  0  0  0  0  0  0
   -3.6227   -2.8494    1.1676 H   0  0  0  0  0  0  0  0  0  0  0  0
   -2.0351   -0.4283    1.8373 H   0  0  0  0  0  0  0  0  0  0  0  0
   -1.1720   -3.1468    0.6364 H   0  0  0  0  0  0  0  0  0  0  0  0
   -1.0770   -2.7470    2.3702 H   0  0  0  0  0  0  0  0  0  0  0  0
    0.8377   -3.6670   -0.5932 H   0  0  0  0  0  0  0  0  0  0  0  0
   -0.1448   -2.5392   -1.6334 H   0  0  0  0  0  0  0  0  0  0  0  0
    1.6965   -2.6823   -3.0812 H   0  0  0  0  0  0  0  0  0  0  0  0
    2.7839   -3.2584   -1.7516 H   0  0  0  0  0  0  0  0  0  0  0  0
    2.1478   -0.4528   -2.6193 H   0  0  0  0  0  0  0  0  0  0  0  0
    3.6434   -1.0933   -1.8351 H   0  0  0  0  0  0  0  0  0  0  0  0
    2.8252   -0.7529    0.3193 H   0  0  0  0  0  0  0  0  0  0  0  0
    0.6530    0.8502   -1.2201 H   0  0  0  0  0  0  0  0  0  0  0  0
    1.0283    1.0562    0.5155 H   0  0  0  0  0  0  0  0  0  0  0  0
    2.5060    2.1779   -1.7497 H   0  0  0  0  0  0  0  0  0  0  0  0
    4.5114    1.5863    3.2777 H   0  0  0  0  0  0  0  0  0  0  0  0
    6.3119    3.1572    2.5693 H   0  0  0  0  0  0  0  0  0  0  0  0
    6.2827    4.0356    0.2374 H   0  0  0  0  0  0  0  0  0  0  0  0
   -2.6557   -1.7185   -0.9088 H   0  0  0  0  0  0  0  0  0  0  0  0
   -1.4425   -0.4421   -0.6431 H   0  0  0  0  0  0  0  0  0  0  0  0
   -5.0351   -1.1633   -0.9254 H   0  0  0  0  0  0  0  0  0  0  0  0
   -3.9058    3.5772    0.0131 H   0  0  0  0  0  0  0  0  0  0  0  0
  1  2  1  0
  2  3  1  0
  3  4  1  0
  4  5  2  0
  4  6  1  0
  6  7  1  0
  7  8  1  0
  8  9  1  0
  9 10  1  0
 10 11  1  0
 11 12  1  0
 12 13  1  0
 13 14  2  0
 14 15  1  0
 15 16  2  0
 16 17  1  0
 17 18  2  0
  2 19  1  0
 19 20  1  0
 20 21  2  0
 21 22  1  0
 22 23  1  0
 22 24  2  0
 24 25  1  0
 24 26  1  0
 26 27  2  0
 27 28  1  0
 10  6  1  0
 18 13  1  0
 27 20  1  0
  1 29  1  0
  1 30  1  0
  2 31  1  1
  3 32  1  0
  3 33  1  0
  7 34  1  0
  7 35  1  0
  8 36  1  0
  8 37  1  0
  9 38  1  0
  9 39  1  0
 10 40  1  1
 11 41  1  0
 11 42  1  0
 12 43  1  0
 15 44  1  0
 16 45  1  0
 17 46  1  0
 19 47  1  0
 19 48  1  0
 21 49  1  0
 26 50  1  0
M  END
$$$$
