
     RDKit          3D

 40 42  0  0  0  0  0  0  0  0999 V2000
    6.1941   -0.6163    0.1971 C   0  0  0  0  0  0  0  0  0  0  0  0
    4.8241   -0.4020    0.4503 O   0  0  0  0  0  0  0  0  0  0  0  0
    4.3525    0.6369   -0.3800 C   0  0  0  0  0  0  0  0  0  0  0  0
    2.8814    0.8141   -0.1522 C   0  0  0  0  0  0  0  0  0  0  0  0
    2.3892    1.8732    0.5313 N   0  0  0  0  0  0  0  0  0  0  0  0
    1.0647    1.6561    0.5212 C   0  0  0  0  0  0  0  0  0  0  0  0
    0.1021    2.4656    1.1048 C   0  0  0  0  0  0  0  0  0  0  0  0
   -1.2352    2.0732    1.0052 C   0  0  0  0  0  0  0  0  0  0  0  0
   -1.5950    0.8913    0.3195 C   0  0  0  0  0  0  0  0  0  0  0  0
   -3.0294    0.5395    0.2749 C   0  0  0  0  0  0  0  0  0  0  0  0
   -3.7873    0.8815   -0.8562 C   0  0  0  0  0  0  0  0  0  0  0  0
   -5.1472    0.5656   -0.9147 C   0  0  0  0  0  0  0  0  0  0  0  0
   -5.7608   -0.0864    0.1574 C   0  0  0  0  0  0  0  0  0  0  0  0
   -5.0168   -0.4212    1.2919 C   0  0  0  0  0  0  0  0  0  0  0  0
   -3.6537   -0.1087    1.3597 C   0  0  0  0  0  0  0  0  0  0  0  0
   -2.7547   -0.5417    2.8099 Cl  0  0  0  0  0  0  0  0  0  0  0  0
   -0.5951    0.0763   -0.2974 C   0  0  0  0  0  0  0  0  0  0  0  0
   -0.9854   -1.1988   -1.0155 C   0  0  0  0  0  0  0  0  0  0  0  0
   -0.8309   -2.3452   -0.1262 N   0  0  0  0  0  0  0  0  0  0  0  0
    0.7548    0.4975   -0.1475 C   0  0  0  0  0  0  0  0  0  0  0  0
    1.9203   -0.0587   -0.5671 N   0  0  0  0  0  0  0  0  0  0  0  0
    2.1463   -1.2896   -1.3297 C   0  0  0  0  0  0  0  0  0  0  0  0
    6.3611   -0.9530   -0.8503 H   0  0  0  0  0  0  0  0  0  0  0  0
    6.5558   -1.4213    0.8692 H   0  0  0  0  0  0  0  0  0  0  0  0
    6.7930    0.2965    0.4130 H   0  0  0  0  0  0  0  0  0  0  0  0
    4.5202    0.4085   -1.4571 H   0  0  0  0  0  0  0  0  0  0  0  0
    4.8685    1.5936   -0.1367 H   0  0  0  0  0  0  0  0  0  0  0  0
    0.3775    3.3713    1.6296 H   0  0  0  0  0  0  0  0  0  0  0  0
   -1.9982    2.6894    1.4656 H   0  0  0  0  0  0  0  0  0  0  0  0
   -3.3221    1.3882   -1.6930 H   0  0  0  0  0  0  0  0  0  0  0  0
   -5.7258    0.8271   -1.7912 H   0  0  0  0  0  0  0  0  0  0  0  0
   -6.8143   -0.3301    0.1103 H   0  0  0  0  0  0  0  0  0  0  0  0
   -5.5017   -0.9229    2.1198 H   0  0  0  0  0  0  0  0  0  0  0  0
   -0.3817   -1.3338   -1.9315 H   0  0  0  0  0  0  0  0  0  0  0  0
   -2.0315   -1.1586   -1.3847 H   0  0  0  0  0  0  0  0  0  0  0  0
   -1.0190   -3.2093   -0.6843 H   0  0  0  0  0  0  0  0  0  0  0  0
   -1.5775   -2.2956    0.6041 H   0  0  0  0  0  0  0  0  0  0  0  0
    1.8266   -1.1458   -2.3822 H   0  0  0  0  0  0  0  0  0  0  0  0
    1.6127   -2.1381   -0.8616 H   0  0  0  0  0  0  0  0  0  0  0  0
    3.2188   -1.5682   -1.3388 H   0  0  0  0  0  0  0  0  0  0  0  0
  1  2  1  0
  2  3  1  0
  3  4  1  0
  4  5  2  0
  5  6  1  0
  6  7  2  0
  7  8  1  0
  8  9  2  0
  9 10  1  0
 10 11  2  0
 11 12  1  0
 12 13  2  0
 13 14  1  0
 14 15  2  0
 15 16  1  0
  9 17  1  0
 17 18  1  0
 18 19  1  0
 17 20  2  0
 20 21  1  0
 21 22  1  0
 21  4  1  0
 20  6  1  0
 15 10  1  0
  1 23  1  0
  1 24  1  0
  1 25  1  0
  3 26  1  0
  3 27  1  0
  7 28  1  0
  8 29  1  0
 11 30  1  0
 12 31  1  0
 13 32  1  0
 14 33  1  0
 18 34  1  0
 18 35  1  0
 19 36  1  0
 19 37  1  0
 22 38  1  0
 22 39  1  0
 22 40  1  0
M  END
$$$$
