
     RDKit          3D

 49 52  0  0  0  0  0  0  0  0999 V2000
   -3.5178    0.0043    3.5708 N   0  0  0  0  0  0  0  0  0  0  0  0
   -3.9028   -0.2894    2.5197 C   0  0  0  0  0  0  0  0  0  0  0  0
   -4.3832   -0.6565    1.2106 C   0  0  0  0  0  0  0  0  0  0  0  0
   -5.7652   -0.7454    0.9936 C   0  0  0  0  0  0  0  0  0  0  0  0
   -6.2701   -1.1510   -0.2539 C   0  0  0  0  0  0  0  0  0  0  0  0
   -7.7581   -1.1964   -0.4960 C   0  0  0  0  0  0  0  0  0  0  0  0
   -8.4305   -1.5452    0.6626 F   0  0  0  0  0  0  0  0  0  0  0  0
   -8.1899    0.0499   -0.9095 F   0  0  0  0  0  0  0  0  0  0  0  0
   -8.0682   -2.1277   -1.4721 F   0  0  0  0  0  0  0  0  0  0  0  0
   -5.3705   -1.4264   -1.2967 C   0  0  0  0  0  0  0  0  0  0  0  0
   -3.9929   -1.3399   -1.0847 C   0  0  0  0  0  0  0  0  0  0  0  0
   -3.4880   -0.9559    0.1650 C   0  0  0  0  0  0  0  0  0  0  0  0
   -2.0688   -0.8613    0.3550 N   0  0  0  0  0  0  0  0  0  0  0  0
   -1.1753   -1.9976    0.2103 C   0  0  0  0  0  0  0  0  0  0  0  0
    0.2360   -1.4317    0.2777 C   0  0  2  0  0  0  0  0  0  0  0  0
    0.1103    0.0770    0.4560 C   0  0  2  0  0  0  0  0  0  0  0  0
   -1.3743    0.4076    0.4919 C   0  0  0  0  0  0  0  0  0  0  0  0
    0.6308   -0.4951   -0.8555 C   0  0  1  0  0  0  0  0  0  0  0  0
    2.0791   -0.3755   -1.0021 N   0  0  0  0  0  0  0  0  0  0  0  0
    2.3985    0.8828   -1.6800 C   0  0  0  0  0  0  0  0  0  0  0  0
    3.8851    1.1025   -1.6744 C   0  0  0  0  0  0  0  0  0  0  0  0
    4.4985    1.1071   -2.7761 O   0  0  0  0  0  0  0  0  0  0  0  0
    4.6260    1.2766   -0.4484 N   0  0  0  0  0  0  0  0  0  0  0  0
    6.0755    1.1716   -0.4088 C   0  0  0  0  0  0  0  0  0  0  0  0
    6.4355    0.9872    1.0589 C   0  0  1  0  0  0  0  0  0  0  0  0
    7.5730    1.7063    1.3861 F   0  0  0  0  0  0  0  0  0  0  0  0
    5.2263    1.4779    1.8502 C   0  0  0  0  0  0  0  0  0  0  0  0
    4.0410    1.4063    0.8825 C   0  0  1  0  0  0  0  0  0  0  0  0
    3.2155    2.6218    0.9795 C   0  0  0  0  0  0  0  0  0  0  0  0
    2.5660    3.5766    1.0562 N   0  0  0  0  0  0  0  0  0  0  0  0
   -6.4478   -0.5013    1.7997 H   0  0  0  0  0  0  0  0  0  0  0  0
   -5.7323   -1.7045   -2.2786 H   0  0  0  0  0  0  0  0  0  0  0  0
   -3.3162   -1.5539   -1.9024 H   0  0  0  0  0  0  0  0  0  0  0  0
   -1.3390   -2.7111    1.0452 H   0  0  0  0  0  0  0  0  0  0  0  0
   -1.3378   -2.5089   -0.7623 H   0  0  0  0  0  0  0  0  0  0  0  0
    1.0267   -1.8957    0.9060 H   0  0  0  0  0  0  0  0  0  0  0  0
    0.8261    0.5076    1.1886 H   0  0  0  0  0  0  0  0  0  0  0  0
   -1.6400    1.0879   -0.3456 H   0  0  0  0  0  0  0  0  0  0  0  0
   -1.6275    0.8840    1.4611 H   0  0  0  0  0  0  0  0  0  0  0  0
   -0.0169   -0.4745   -1.7609 H   0  0  0  0  0  0  0  0  0  0  0  0
    2.3930   -1.1639   -1.6151 H   0  0  0  0  0  0  0  0  0  0  0  0
    1.9029    1.7388   -1.1753 H   0  0  0  0  0  0  0  0  0  0  0  0
    2.0266    0.8542   -2.7299 H   0  0  0  0  0  0  0  0  0  0  0  0
    6.5240    2.1030   -0.8176 H   0  0  0  0  0  0  0  0  0  0  0  0
    6.4217    0.2956   -0.9999 H   0  0  0  0  0  0  0  0  0  0  0  0
    6.6060   -0.0916    1.2705 H   0  0  0  0  0  0  0  0  0  0  0  0
    5.0515    0.8397    2.7438 H   0  0  0  0  0  0  0  0  0  0  0  0
    5.4146    2.5215    2.1922 H   0  0  0  0  0  0  0  0  0  0  0  0
    3.4230    0.5127    1.1122 H   0  0  0  0  0  0  0  0  0  0  0  0
  1  2  3  0
  2  3  1  0
  3  4  2  0
  4  5  1  0
  5  6  1  0
  6  7  1  0
  6  8  1  0
  6  9  1  0
  5 10  2  0
 10 11  1  0
 11 12  2  0
 12 13  1  0
 13 14  1  0
 14 15  1  0
 15 16  1  0
 16 17  1  0
 16 18  1  0
 18 19  1  0
 19 20  1  0
 20 21  1  0
 21 22  2  0
 21 23  1  0
 23 24  1  0
 24 25  1  0
 25 26  1  0
 25 27  1  0
 27 28  1  0
 28 29  1  0
 29 30  3  0
 12  3  1  0
 17 13  1  0
 28 23  1  0
 18 15  1  0
  4 31  1  0
 10 32  1  0
 11 33  1  0
 14 34  1  0
 14 35  1  0
 15 36  1  1
 16 37  1  1
 17 38  1  0
 17 39  1  0
 18 40  1  6
 19 41  1  0
 20 42  1  0
 20 43  1  0
 24 44  1  0
 24 45  1  0
 25 46  1  6
 27 47  1  0
 27 48  1  0
 28 49  1  1
M  END
$$$$
