
     RDKit          3D

 60 64  0  0  0  0  0  0  0  0999 V2000
    0.4901    1.6018   -1.0110 O   0  0  0  0  0  0  0  0  0  0  0  0
   -0.3689    1.5758   -0.0869 C   0  0  0  0  0  0  0  0  0  0  0  0
   -0.3516    0.4216    0.8920 C   0  0  2  0  0  0  0  0  0  0  0  0
    0.9654    0.3604    1.6752 C   0  0  0  0  0  0  0  0  0  0  0  0
    1.4118   -1.1087    1.6352 C   0  0  2  0  0  0  0  0  0  0  0  0
    2.8581   -1.2376    1.4320 N   0  0  0  0  0  0  0  0  0  0  0  0
    3.5835   -0.7956    0.3876 C   0  0  0  0  0  0  0  0  0  0  0  0
    4.8939   -1.1486    0.6492 C   0  0  0  0  0  0  0  0  0  0  0  0
    6.0880   -0.8919   -0.1898 C   0  0  0  0  0  0  0  0  0  0  0  0
    5.9837   -0.2133   -1.4195 C   0  0  0  0  0  0  0  0  0  0  0  0
    7.1220    0.0200   -2.1978 C   0  0  0  0  0  0  0  0  0  0  0  0
    8.3732   -0.4192   -1.7603 C   0  0  0  0  0  0  0  0  0  0  0  0
    8.4894   -1.0931   -0.5429 C   0  0  0  0  0  0  0  0  0  0  0  0
    7.3549   -1.3292    0.2396 C   0  0  0  0  0  0  0  0  0  0  0  0
    4.9214   -1.7897    1.8372 N   0  0  0  0  0  0  0  0  0  0  0  0
    3.6759   -1.8287    2.2876 N   0  0  0  0  0  0  0  0  0  0  0  0
    0.6152   -1.7753    0.5112 C   0  0  0  0  0  0  0  0  0  0  0  0
   -0.4532   -0.8477    0.1865 N   0  0  0  0  0  0  0  0  0  0  0  0
   -1.5807   -1.2072   -0.6267 C   0  0  0  0  0  0  0  0  0  0  0  0
   -1.6492   -2.3595   -1.1359 O   0  0  0  0  0  0  0  0  0  0  0  0
   -2.5971   -0.2714   -0.8531 O   0  0  0  0  0  0  0  0  0  0  0  0
   -3.7987   -0.5690   -1.5579 C   0  0  0  0  0  0  0  0  0  0  0  0
   -4.7099   -1.3998   -0.6982 C   0  0  0  0  0  0  0  0  0  0  0  0
   -4.9366   -2.7544   -0.9935 C   0  0  0  0  0  0  0  0  0  0  0  0
   -5.7654   -3.5241   -0.1711 C   0  0  0  0  0  0  0  0  0  0  0  0
   -6.3677   -2.9494    0.9517 C   0  0  0  0  0  0  0  0  0  0  0  0
   -6.1406   -1.6041    1.2553 C   0  0  0  0  0  0  0  0  0  0  0  0
   -5.3126   -0.8310    0.4355 C   0  0  0  0  0  0  0  0  0  0  0  0
   -1.3563    2.6211   -0.0114 N   0  0  0  0  0  0  0  0  0  0  0  0
   -2.3518    2.7473    1.0402 C   0  0  0  0  0  0  0  0  0  0  0  0
   -3.0749    4.0591    0.7670 C   0  0  0  0  0  0  0  0  0  0  0  0
   -2.7448    4.4247   -0.6771 C   0  0  0  0  0  0  0  0  0  0  0  0
   -1.4738    3.6598   -1.0199 C   0  0  0  0  0  0  0  0  0  0  0  0
   -1.1935    0.4840    1.6123 H   0  0  0  0  0  0  0  0  0  0  0  0
    1.7389    1.0213    1.2255 H   0  0  0  0  0  0  0  0  0  0  0  0
    0.8109    0.6921    2.7254 H   0  0  0  0  0  0  0  0  0  0  0  0
    1.1293   -1.5877    2.6005 H   0  0  0  0  0  0  0  0  0  0  0  0
    3.1857   -0.2700   -0.4703 H   0  0  0  0  0  0  0  0  0  0  0  0
    5.0289    0.1388   -1.7846 H   0  0  0  0  0  0  0  0  0  0  0  0
    7.0333    0.5423   -3.1417 H   0  0  0  0  0  0  0  0  0  0  0  0
    9.2526   -0.2373   -2.3646 H   0  0  0  0  0  0  0  0  0  0  0  0
    9.4597   -1.4331   -0.2046 H   0  0  0  0  0  0  0  0  0  0  0  0
    7.4698   -1.8538    1.1799 H   0  0  0  0  0  0  0  0  0  0  0  0
    0.1931   -2.7420    0.8633 H   0  0  0  0  0  0  0  0  0  0  0  0
    1.2315   -1.9545   -0.3957 H   0  0  0  0  0  0  0  0  0  0  0  0
   -3.5635   -1.0760   -2.5195 H   0  0  0  0  0  0  0  0  0  0  0  0
   -4.3087    0.3860   -1.8058 H   0  0  0  0  0  0  0  0  0  0  0  0
   -4.4716   -3.2147   -1.8564 H   0  0  0  0  0  0  0  0  0  0  0  0
   -5.9389   -4.5670   -0.4029 H   0  0  0  0  0  0  0  0  0  0  0  0
   -7.0080   -3.5469    1.5876 H   0  0  0  0  0  0  0  0  0  0  0  0
   -6.6042   -1.1610    2.1271 H   0  0  0  0  0  0  0  0  0  0  0  0
   -5.1390    0.2089    0.6839 H   0  0  0  0  0  0  0  0  0  0  0  0
   -1.8625    2.7758    2.0380 H   0  0  0  0  0  0  0  0  0  0  0  0
   -3.0649    1.8964    0.9853 H   0  0  0  0  0  0  0  0  0  0  0  0
   -4.1716    3.9562    0.9176 H   0  0  0  0  0  0  0  0  0  0  0  0
   -2.6854    4.8486    1.4469 H   0  0  0  0  0  0  0  0  0  0  0  0
   -3.5719    4.0898   -1.3414 H   0  0  0  0  0  0  0  0  0  0  0  0
   -2.6026    5.5209   -0.7950 H   0  0  0  0  0  0  0  0  0  0  0  0
   -0.5881    4.3296   -0.9696 H   0  0  0  0  0  0  0  0  0  0  0  0
   -1.5521    3.2100   -2.0338 H   0  0  0  0  0  0  0  0  0  0  0  0
  1  2  2  0
  2  3  1  0
  3  4  1  0
  4  5  1  0
  5  6  1  0
  6  7  1  0
  7  8  2  0
  8  9  1  0
  9 10  2  0
 10 11  1  0
 11 12  2  0
 12 13  1  0
 13 14  2  0
  8 15  1  0
 15 16  2  0
  5 17  1  0
 17 18  1  0
 18 19  1  0
 19 20  2  0
 19 21  1  0
 21 22  1  0
 22 23  1  0
 23 24  2  0
 24 25  1  0
 25 26  2  0
 26 27  1  0
 27 28  2  0
  2 29  1  0
 29 30  1  0
 30 31  1  0
 31 32  1  0
 32 33  1  0
 18  3  1  0
 28 23  1  0
 33 29  1  0
 16  6  1  0
 14  9  1  0
  3 34  1  1
  4 35  1  0
  4 36  1  0
  5 37  1  1
  7 38  1  0
 10 39  1  0
 11 40  1  0
 12 41  1  0
 13 42  1  0
 14 43  1  0
 17 44  1  0
 17 45  1  0
 22 46  1  0
 22 47  1  0
 24 48  1  0
 25 49  1  0
 26 50  1  0
 27 51  1  0
 28 52  1  0
 30 53  1  0
 30 54  1  0
 31 55  1  0
 31 56  1  0
 32 57  1  0
 32 58  1  0
 33 59  1  0
 33 60  1  0
M  END
$$$$
