
     RDKit          3D

 44 47  0  0  0  0  0  0  0  0999 V2000
    2.4453    1.1412    2.2803 N   0  0  0  0  0  0  0  0  0  0  0  0
    2.0535    0.2748    1.1685 C   0  0  1  0  0  0  0  0  0  0  0  0
    0.5373    0.2830    0.9683 C   0  0  0  0  0  0  0  0  0  0  0  0
    0.3304    0.2897   -0.4729 N   0  0  0  0  0  0  0  0  0  0  0  0
   -0.9487    0.1264   -1.1153 C   0  0  0  0  0  0  0  0  0  0  0  0
   -2.1369    0.0574   -0.3714 C   0  0  0  0  0  0  0  0  0  0  0  0
   -3.3512   -0.1163   -1.0488 C   0  0  0  0  0  0  0  0  0  0  0  0
   -4.6350   -0.1729   -0.3172 C   0  0  0  0  0  0  0  0  0  0  0  0
   -5.6827    0.6706   -0.7257 C   0  0  0  0  0  0  0  0  0  0  0  0
   -6.9073    0.6578   -0.0537 C   0  0  0  0  0  0  0  0  0  0  0  0
   -7.1038   -0.2038    1.0262 C   0  0  0  0  0  0  0  0  0  0  0  0
   -6.0795   -1.0622    1.4308 C   0  0  0  0  0  0  0  0  0  0  0  0
   -4.8470   -1.0589    0.7653 C   0  0  0  0  0  0  0  0  0  0  0  0
   -3.6332   -2.2326    1.2680 Cl  0  0  0  0  0  0  0  0  0  0  0  0
   -3.3540   -0.1773   -2.4073 N   0  0  0  0  0  0  0  0  0  0  0  0
   -2.1993   -0.1026   -3.1164 C   0  0  0  0  0  0  0  0  0  0  0  0
   -1.0136    0.0446   -2.4723 N   0  0  0  0  0  0  0  0  0  0  0  0
    1.5664    0.4661   -1.2177 C   0  0  0  0  0  0  0  0  0  0  0  0
    2.6314    0.7824   -0.1645 C   0  0  2  0  0  0  0  0  0  0  0  0
    3.9916    0.1912   -0.4895 C   0  0  0  0  0  0  0  0  0  0  0  0
    4.1654   -1.1974   -0.6557 C   0  0  0  0  0  0  0  0  0  0  0  0
    5.4275   -1.7231   -0.9475 C   0  0  0  0  0  0  0  0  0  0  0  0
    6.5283   -0.8731   -1.0746 C   0  0  0  0  0  0  0  0  0  0  0  0
    6.3693    0.5045   -0.9094 C   0  0  0  0  0  0  0  0  0  0  0  0
    5.1093    1.0358   -0.6175 C   0  0  0  0  0  0  0  0  0  0  0  0
    2.0401    0.7435    3.1590 H   0  0  0  0  0  0  0  0  0  0  0  0
    3.4844    1.0820    2.3851 H   0  0  0  0  0  0  0  0  0  0  0  0
    2.3796   -0.7706    1.3735 H   0  0  0  0  0  0  0  0  0  0  0  0
    0.0746    1.1933    1.4092 H   0  0  0  0  0  0  0  0  0  0  0  0
    0.0870   -0.6273    1.4211 H   0  0  0  0  0  0  0  0  0  0  0  0
   -2.1268    0.1561    0.7060 H   0  0  0  0  0  0  0  0  0  0  0  0
   -5.5462    1.3514   -1.5573 H   0  0  0  0  0  0  0  0  0  0  0  0
   -7.7046    1.3178   -0.3702 H   0  0  0  0  0  0  0  0  0  0  0  0
   -8.0540   -0.2134    1.5443 H   0  0  0  0  0  0  0  0  0  0  0  0
   -6.2495   -1.7410    2.2570 H   0  0  0  0  0  0  0  0  0  0  0  0
   -2.2240   -0.1592   -4.1958 H   0  0  0  0  0  0  0  0  0  0  0  0
    1.4683    1.3121   -1.9329 H   0  0  0  0  0  0  0  0  0  0  0  0
    1.7869   -0.4647   -1.7828 H   0  0  0  0  0  0  0  0  0  0  0  0
    2.7068    1.8933   -0.1063 H   0  0  0  0  0  0  0  0  0  0  0  0
    3.3257   -1.8740   -0.5593 H   0  0  0  0  0  0  0  0  0  0  0  0
    5.5520   -2.7908   -1.0744 H   0  0  0  0  0  0  0  0  0  0  0  0
    7.5047   -1.2821   -1.3003 H   0  0  0  0  0  0  0  0  0  0  0  0
    7.2236    1.1621   -1.0067 H   0  0  0  0  0  0  0  0  0  0  0  0
    5.0081    2.1064   -0.4909 H   0  0  0  0  0  0  0  0  0  0  0  0
  1  2  1  0
  2  3  1  0
  3  4  1  0
  4  5  1  0
  5  6  2  0
  6  7  1  0
  7  8  1  0
  8  9  2  0
  9 10  1  0
 10 11  2  0
 11 12  1  0
 12 13  2  0
 13 14  1  0
  7 15  2  0
 15 16  1  0
 16 17  2  0
  4 18  1  0
 18 19  1  0
 19 20  1  0
 20 21  2  0
 21 22  1  0
 22 23  2  0
 23 24  1  0
 24 25  2  0
 19  2  1  0
 25 20  1  0
 17  5  1  0
 13  8  1  0
  1 26  1  0
  1 27  1  0
  2 28  1  1
  3 29  1  0
  3 30  1  0
  6 31  1  0
  9 32  1  0
 10 33  1  0
 11 34  1  0
 12 35  1  0
 16 36  1  0
 18 37  1  0
 18 38  1  0
 19 39  1  1
 21 40  1  0
 22 41  1  0
 23 42  1  0
 24 43  1  0
 25 44  1  0
M  END
$$$$
