
     RDKit          3D

 47 50  0  0  0  0  0  0  0  0999 V2000
   -2.8607    0.5448    2.6907 N   0  0  0  0  0  0  0  0  0  0  0  0
   -2.0158    0.6804    1.5002 C   0  0  1  0  0  0  0  0  0  0  0  0
   -0.5522    0.9397    1.8917 C   0  0  0  0  0  0  0  0  0  0  0  0
    0.2677    1.3302    0.6475 C   0  0  1  0  0  0  0  0  0  0  0  0
    1.7162    1.3737    0.9721 N   0  0  0  0  0  0  0  0  0  0  0  0
    2.5213    2.1000   -0.0449 C   0  0  0  0  0  0  0  0  0  0  0  0
    3.6297    1.1868   -0.3872 C   0  0  0  0  0  0  0  0  0  0  0  0
    4.6712    1.3545   -1.2921 C   0  0  0  0  0  0  0  0  0  0  0  0
    5.5723    0.3422   -1.4381 N   0  0  0  0  0  0  0  0  0  0  0  0
    5.4679   -0.8106   -0.7066 C   0  0  0  0  0  0  0  0  0  0  0  0
    6.4437   -1.9242   -0.9213 C   0  0  0  0  0  0  0  0  0  0  0  0
    6.5937   -2.6564    0.2428 F   0  0  0  0  0  0  0  0  0  0  0  0
    7.6753   -1.4134   -1.2901 F   0  0  0  0  0  0  0  0  0  0  0  0
    5.9773   -2.7540   -1.9232 F   0  0  0  0  0  0  0  0  0  0  0  0
    4.4299   -0.9709    0.1672 N   0  0  0  0  0  0  0  0  0  0  0  0
    3.5317    0.0343    0.3167 C   0  0  0  0  0  0  0  0  0  0  0  0
    2.3538    0.0509    1.2021 C   0  0  0  0  0  0  0  0  0  0  0  0
   -0.0796    0.4854   -0.6210 C   0  0  0  0  0  0  0  0  0  0  0  0
   -0.9227   -0.7803   -0.3581 C   0  0  0  0  0  0  0  0  0  0  0  0
   -2.1100   -0.5988    0.6327 C   0  0  2  0  0  0  0  0  0  0  0  0
   -3.4654   -0.7118   -0.0543 C   0  0  0  0  0  0  0  0  0  0  0  0
   -4.3501   -1.7400    0.3265 C   0  0  0  0  0  0  0  0  0  0  0  0
   -5.6017   -1.8666   -0.2829 C   0  0  0  0  0  0  0  0  0  0  0  0
   -6.4398   -2.8631    0.0960 F   0  0  0  0  0  0  0  0  0  0  0  0
   -5.9890   -0.9682   -1.2792 C   0  0  0  0  0  0  0  0  0  0  0  0
   -7.2031   -1.0898   -1.8708 F   0  0  0  0  0  0  0  0  0  0  0  0
   -5.1255    0.0583   -1.6657 C   0  0  0  0  0  0  0  0  0  0  0  0
   -3.8715    0.1920   -1.0608 C   0  0  0  0  0  0  0  0  0  0  0  0
   -3.0660    1.2055   -1.4599 F   0  0  0  0  0  0  0  0  0  0  0  0
   -2.4426   -0.1636    3.3375 H   0  0  0  0  0  0  0  0  0  0  0  0
   -2.8726    1.4594    3.1984 H   0  0  0  0  0  0  0  0  0  0  0  0
   -2.3795    1.5575    0.9203 H   0  0  0  0  0  0  0  0  0  0  0  0
   -0.1304    0.0312    2.3744 H   0  0  0  0  0  0  0  0  0  0  0  0
   -0.4989    1.7683    2.6318 H   0  0  0  0  0  0  0  0  0  0  0  0
   -0.0450    2.3761    0.4188 H   0  0  0  0  0  0  0  0  0  0  0  0
    2.9269    3.0320    0.4017 H   0  0  0  0  0  0  0  0  0  0  0  0
    1.9444    2.3515   -0.9624 H   0  0  0  0  0  0  0  0  0  0  0  0
    4.7653    2.2618   -1.8735 H   0  0  0  0  0  0  0  0  0  0  0  0
    1.6942   -0.8060    0.9640 H   0  0  0  0  0  0  0  0  0  0  0  0
    2.6808   -0.0220    2.2603 H   0  0  0  0  0  0  0  0  0  0  0  0
    0.8422    0.1807   -1.1605 H   0  0  0  0  0  0  0  0  0  0  0  0
   -0.6329    1.1311   -1.3337 H   0  0  0  0  0  0  0  0  0  0  0  0
   -1.2824   -1.1759   -1.3335 H   0  0  0  0  0  0  0  0  0  0  0  0
   -0.2463   -1.5655    0.0423 H   0  0  0  0  0  0  0  0  0  0  0  0
   -2.0195   -1.4549    1.3410 H   0  0  0  0  0  0  0  0  0  0  0  0
   -4.0730   -2.4473    1.0984 H   0  0  0  0  0  0  0  0  0  0  0  0
   -5.4292    0.7549   -2.4367 H   0  0  0  0  0  0  0  0  0  0  0  0
  1  2  1  0
  2  3  1  0
  3  4  1  0
  4  5  1  0
  5  6  1  0
  6  7  1  0
  7  8  2  0
  8  9  1  0
  9 10  2  0
 10 11  1  0
 11 12  1  0
 11 13  1  0
 11 14  1  0
 10 15  1  0
 15 16  2  0
 16 17  1  0
  4 18  1  0
 18 19  1  0
 19 20  1  0
 20 21  1  0
 21 22  2  0
 22 23  1  0
 23 24  1  0
 23 25  2  0
 25 26  1  0
 25 27  1  0
 27 28  2  0
 28 29  1  0
 20  2  1  0
 28 21  1  0
 17  5  1  0
 16  7  1  0
  1 30  1  0
  1 31  1  0
  2 32  1  6
  3 33  1  0
  3 34  1  0
  4 35  1  6
  6 36  1  0
  6 37  1  0
  8 38  1  0
 17 39  1  0
 17 40  1  0
 18 41  1  0
 18 42  1  0
 19 43  1  0
 19 44  1  0
 20 45  1  1
 22 46  1  0
 27 47  1  0
M  END
$$$$
