
     RDKit          3D

 50 52  0  0  0  0  0  0  0  0999 V2000
   -2.3647   -3.7783    0.1617 C   0  0  0  0  0  0  0  0  0  0  0  0
   -2.4852   -2.3837    0.4126 O   0  0  0  0  0  0  0  0  0  0  0  0
   -3.4943   -1.8447    1.2161 C   0  0  0  0  0  0  0  0  0  0  0  0
   -4.3552   -2.5970    1.7488 O   0  0  0  0  0  0  0  0  0  0  0  0
   -3.5610   -0.3935    1.4461 C   0  0  0  0  0  0  0  0  0  0  0  0
   -4.5116    0.1974    2.2032 N   0  0  0  0  0  0  0  0  0  0  0  0
   -4.2080    1.5153    2.1583 C   0  0  0  0  0  0  0  0  0  0  0  0
   -5.0053    2.5640    2.8744 C   0  0  0  0  0  0  0  0  0  0  0  0
   -5.9709    1.9711    3.6681 F   0  0  0  0  0  0  0  0  0  0  0  0
   -5.6248    3.3852    1.9512 F   0  0  0  0  0  0  0  0  0  0  0  0
   -4.1707    3.3210    3.6755 F   0  0  0  0  0  0  0  0  0  0  0  0
   -3.1251    1.7692    1.3910 N   0  0  0  0  0  0  0  0  0  0  0  0
   -2.7005    0.5735    0.9594 C   0  0  0  0  0  0  0  0  0  0  0  0
   -1.4905    0.4018    0.0885 C   0  0  0  0  0  0  0  0  0  0  0  0
   -0.7968    1.6880   -0.1099 N   0  0  0  0  0  0  0  0  0  0  0  0
    0.5934    1.7124   -0.5030 C   0  0  0  0  0  0  0  0  0  0  0  0
    1.2636    2.7717   -0.3567 O   0  0  0  0  0  0  0  0  0  0  0  0
    1.2849    0.4674   -1.0106 C   0  0  0  0  0  0  0  0  0  0  0  0
    2.4879    0.7716   -1.9305 C   0  0  2  0  0  0  0  0  0  0  0  0
    2.0536    1.6039   -3.0568 N   0  0  0  0  0  0  0  0  0  0  0  0
    3.1499   -0.5269   -2.4486 C   0  0  0  0  0  0  0  0  0  0  0  0
    3.7679   -1.3372   -1.3347 C   0  0  0  0  0  0  0  0  0  0  0  0
    3.0843   -2.4467   -0.8071 C   0  0  0  0  0  0  0  0  0  0  0  0
    3.6390   -3.1846    0.2430 C   0  0  0  0  0  0  0  0  0  0  0  0
    2.9701   -4.2517    0.7458 F   0  0  0  0  0  0  0  0  0  0  0  0
    4.8791   -2.8203    0.7760 C   0  0  0  0  0  0  0  0  0  0  0  0
    5.4177   -3.5347    1.7950 F   0  0  0  0  0  0  0  0  0  0  0  0
    5.5641   -1.7166    0.2604 C   0  0  0  0  0  0  0  0  0  0  0  0
    5.0133   -0.9738   -0.7891 C   0  0  0  0  0  0  0  0  0  0  0  0
    5.6928    0.0974   -1.2718 F   0  0  0  0  0  0  0  0  0  0  0  0
   -1.5837    2.9351   -0.1139 C   0  0  0  0  0  0  0  0  0  0  0  0
   -2.4336    3.0350    1.1572 C   0  0  0  0  0  0  0  0  0  0  0  0
   -2.2120   -4.3245    1.1165 H   0  0  0  0  0  0  0  0  0  0  0  0
   -3.2791   -4.1540   -0.3444 H   0  0  0  0  0  0  0  0  0  0  0  0
   -1.4900   -3.9551   -0.4974 H   0  0  0  0  0  0  0  0  0  0  0  0
   -1.8023   -0.0060   -0.8963 H   0  0  0  0  0  0  0  0  0  0  0  0
   -0.8098   -0.3189    0.5899 H   0  0  0  0  0  0  0  0  0  0  0  0
    1.6259   -0.1098   -0.1257 H   0  0  0  0  0  0  0  0  0  0  0  0
    0.5601   -0.1576   -1.5748 H   0  0  0  0  0  0  0  0  0  0  0  0
    3.2439    1.3425   -1.3457 H   0  0  0  0  0  0  0  0  0  0  0  0
    1.4333    1.0423   -3.6852 H   0  0  0  0  0  0  0  0  0  0  0  0
    2.8940    1.8849   -3.6128 H   0  0  0  0  0  0  0  0  0  0  0  0
    2.4005   -1.1377   -2.9992 H   0  0  0  0  0  0  0  0  0  0  0  0
    3.9438   -0.2685   -3.1830 H   0  0  0  0  0  0  0  0  0  0  0  0
    2.1186   -2.7345   -1.2043 H   0  0  0  0  0  0  0  0  0  0  0  0
    6.5229   -1.4345    0.6762 H   0  0  0  0  0  0  0  0  0  0  0  0
   -2.2511    2.9359   -1.0029 H   0  0  0  0  0  0  0  0  0  0  0  0
   -0.9338    3.8336   -0.1791 H   0  0  0  0  0  0  0  0  0  0  0  0
   -1.7765    3.2559    2.0256 H   0  0  0  0  0  0  0  0  0  0  0  0
   -3.1681    3.8604    1.0430 H   0  0  0  0  0  0  0  0  0  0  0  0
  1  2  1  0
  2  3  1  0
  3  4  2  0
  3  5  1  0
  5  6  1  0
  6  7  2  0
  7  8  1  0
  8  9  1  0
  8 10  1  0
  8 11  1  0
  7 12  1  0
 12 13  1  0
 13 14  1  0
 14 15  1  0
 15 16  1  0
 16 17  2  0
 16 18  1  0
 18 19  1  0
 19 20  1  0
 19 21  1  0
 21 22  1  0
 22 23  2  0
 23 24  1  0
 24 25  1  0
 24 26  2  0
 26 27  1  0
 26 28  1  0
 28 29  2  0
 29 30  1  0
 15 31  1  0
 31 32  1  0
 13  5  2  0
 29 22  1  0
 32 12  1  0
  1 33  1  0
  1 34  1  0
  1 35  1  0
 14 36  1  0
 14 37  1  0
 18 38  1  0
 18 39  1  0
 19 40  1  1
 20 41  1  0
 20 42  1  0
 21 43  1  0
 21 44  1  0
 23 45  1  0
 28 46  1  0
 31 47  1  0
 31 48  1  0
 32 49  1  0
 32 50  1  0
M  END
$$$$
