
     RDKit          3D

 51 52  0  0  0  0  0  0  0  0999 V2000
   -0.4568   -0.9906    3.0017 C   0  0  0  0  0  0  0  0  0  0  0  0
    0.7912   -0.5112    2.2566 C   0  0  0  0  0  0  0  0  0  0  0  0
    0.6527   -0.6244    0.7181 C   0  0  1  0  0  0  0  0  0  0  0  0
   -0.1703    0.5525    0.1210 C   0  0  0  0  0  0  0  0  0  0  0  0
   -0.5922    0.3251   -1.3507 C   0  0  2  0  0  0  0  0  0  0  0  0
    0.5042    0.6693   -2.2622 N   0  0  0  0  0  0  0  0  0  0  0  0
   -1.8441    1.1295   -1.6633 C   0  0  0  0  0  0  0  0  0  0  0  0
   -1.7319    2.2318   -2.2681 O   0  0  0  0  0  0  0  0  0  0  0  0
   -3.1473    0.6952   -1.2102 N   0  0  0  0  0  0  0  0  0  0  0  0
   -4.2665    1.6493   -1.1625 C   0  0  0  0  0  0  0  0  0  0  0  0
   -5.0565    1.4813    0.1426 C   0  0  0  0  0  0  0  0  0  0  0  0
   -5.3801    0.0099    0.4858 C   0  0  0  0  0  0  0  0  0  0  0  0
   -4.8647   -0.9867   -0.5588 C   0  0  0  0  0  0  0  0  0  0  0  0
   -3.3905   -0.7211   -0.8840 C   0  0  0  0  0  0  0  0  0  0  0  0
    1.9804   -0.7967    0.0896 N   0  0  0  0  0  0  0  0  0  0  0  0
    2.8607    0.3791    0.1675 C   0  0  0  0  0  0  0  0  0  0  0  0
    4.2640   -0.0285   -0.1821 C   0  0  0  0  0  0  0  0  0  0  0  0
    5.1139   -0.5535    0.8050 C   0  0  0  0  0  0  0  0  0  0  0  0
    6.4072   -0.9686    0.4728 C   0  0  0  0  0  0  0  0  0  0  0  0
    6.8567   -0.8739   -0.8485 C   0  0  0  0  0  0  0  0  0  0  0  0
    8.4785   -1.3973   -1.2639 Cl  0  0  0  0  0  0  0  0  0  0  0  0
    6.0089   -0.3678   -1.8394 C   0  0  0  0  0  0  0  0  0  0  0  0
    4.7151    0.0480   -1.5101 C   0  0  0  0  0  0  0  0  0  0  0  0
   -0.6812   -2.0473    2.7434 H   0  0  0  0  0  0  0  0  0  0  0  0
   -1.3356   -0.3594    2.7581 H   0  0  0  0  0  0  0  0  0  0  0  0
   -0.2788   -0.9285    4.0959 H   0  0  0  0  0  0  0  0  0  0  0  0
    1.0019    0.5393    2.5523 H   0  0  0  0  0  0  0  0  0  0  0  0
    1.6464   -1.1365    2.5954 H   0  0  0  0  0  0  0  0  0  0  0  0
    0.0842   -1.5606    0.5169 H   0  0  0  0  0  0  0  0  0  0  0  0
   -1.0910    0.6629    0.7317 H   0  0  0  0  0  0  0  0  0  0  0  0
    0.3700    1.5167    0.2287 H   0  0  0  0  0  0  0  0  0  0  0  0
   -0.8197   -0.7509   -1.5012 H   0  0  0  0  0  0  0  0  0  0  0  0
    0.7248    1.6894   -2.1878 H   0  0  0  0  0  0  0  0  0  0  0  0
    0.1984    0.4807   -3.2449 H   0  0  0  0  0  0  0  0  0  0  0  0
   -3.9071    2.6996   -1.2171 H   0  0  0  0  0  0  0  0  0  0  0  0
   -4.9347    1.4740   -2.0333 H   0  0  0  0  0  0  0  0  0  0  0  0
   -6.0001    2.0644    0.0681 H   0  0  0  0  0  0  0  0  0  0  0  0
   -4.4623    1.9225    0.9730 H   0  0  0  0  0  0  0  0  0  0  0  0
   -4.9289   -0.2424    1.4708 H   0  0  0  0  0  0  0  0  0  0  0  0
   -6.4799   -0.1159    0.5879 H   0  0  0  0  0  0  0  0  0  0  0  0
   -4.9801   -2.0230   -0.1741 H   0  0  0  0  0  0  0  0  0  0  0  0
   -5.4717   -0.8999   -1.4866 H   0  0  0  0  0  0  0  0  0  0  0  0
   -3.1022   -1.3578   -1.7481 H   0  0  0  0  0  0  0  0  0  0  0  0
   -2.7741   -1.0110   -0.0058 H   0  0  0  0  0  0  0  0  0  0  0  0
    1.8602   -1.0721   -0.9126 H   0  0  0  0  0  0  0  0  0  0  0  0
    2.8606    0.8150    1.1885 H   0  0  0  0  0  0  0  0  0  0  0  0
    2.5223    1.1715   -0.5326 H   0  0  0  0  0  0  0  0  0  0  0  0
    4.7744   -0.6420    1.8297 H   0  0  0  0  0  0  0  0  0  0  0  0
    7.0570   -1.3669    1.2416 H   0  0  0  0  0  0  0  0  0  0  0  0
    6.3495   -0.3001   -2.8648 H   0  0  0  0  0  0  0  0  0  0  0  0
    4.0653    0.4277   -2.2891 H   0  0  0  0  0  0  0  0  0  0  0  0
  1  2  1  0
  2  3  1  0
  3  4  1  0
  4  5  1  0
  5  6  1  0
  5  7  1  0
  7  8  2  0
  7  9  1  0
  9 10  1  0
 10 11  1  0
 11 12  1  0
 12 13  1  0
 13 14  1  0
  3 15  1  0
 15 16  1  0
 16 17  1  0
 17 18  2  0
 18 19  1  0
 19 20  2  0
 20 21  1  0
 20 22  1  0
 22 23  2  0
 14  9  1  0
 23 17  1  0
  1 24  1  0
  1 25  1  0
  1 26  1  0
  2 27  1  0
  2 28  1  0
  3 29  1  1
  4 30  1  0
  4 31  1  0
  5 32  1  1
  6 33  1  0
  6 34  1  0
 10 35  1  0
 10 36  1  0
 11 37  1  0
 11 38  1  0
 12 39  1  0
 12 40  1  0
 13 41  1  0
 13 42  1  0
 14 43  1  0
 14 44  1  0
 15 45  1  0
 16 46  1  0
 16 47  1  0
 18 48  1  0
 19 49  1  0
 22 50  1  0
 23 51  1  0
M  END
$$$$
