
     RDKit          3D

 61 65  0  0  0  0  0  0  0  0999 V2000
    4.9493    1.6747   -2.1345 C   0  0  0  0  0  0  0  0  0  0  0  0
    4.2465    0.5198   -0.9788 S   0  0  0  0  0  0  0  0  0  0  0  0
    4.5376    0.9735    0.4254 O   0  0  0  0  0  0  0  0  0  0  0  0
    4.8651   -0.8880   -1.2452 N   0  0  0  0  0  0  0  0  0  0  0  0
    5.7533   -1.7346   -0.0435 S   0  0  0  0  0  0  0  0  0  0  0  0
    4.8665   -1.9749    1.1467 O   0  0  0  0  0  0  0  0  0  0  0  0
    6.1948   -3.0598   -0.5963 O   0  0  0  0  0  0  0  0  0  0  0  0
    7.1755   -0.8026    0.4131 C   0  0  0  0  0  0  0  0  0  0  0  0
    7.9955   -0.2542   -0.5830 C   0  0  0  0  0  0  0  0  0  0  0  0
    9.1207    0.4979   -0.2318 C   0  0  0  0  0  0  0  0  0  0  0  0
    9.4333    0.7022    1.1153 C   0  0  0  0  0  0  0  0  0  0  0  0
    8.6210    0.1540    2.1123 C   0  0  0  0  0  0  0  0  0  0  0  0
    7.4942   -0.5977    1.7638 C   0  0  0  0  0  0  0  0  0  0  0  0
    2.5349    0.4413   -1.2099 N   0  0  0  0  0  0  0  0  0  0  0  0
    1.6986    1.5006   -1.2069 C   0  0  0  0  0  0  0  0  0  0  0  0
    0.4208    0.9966   -1.2896 C   0  0  0  0  0  0  0  0  0  0  0  0
    0.5486   -0.3341   -1.2928 C   0  0  0  0  0  0  0  0  0  0  0  0
    1.8424   -0.6902   -1.1911 N   0  0  0  0  0  0  0  0  0  0  0  0
   -0.6174   -0.9709   -0.6565 C   0  0  0  0  0  0  0  0  0  0  0  0
   -1.6023    0.1336   -0.4651 N   0  0  0  0  0  0  0  0  0  0  0  0
   -2.3075    0.0549    0.8438 C   0  0  1  0  0  0  0  0  0  0  0  0
   -3.2771    1.2669    1.0585 C   0  0  0  0  0  0  0  0  0  0  0  0
   -4.6460    0.9013    1.1152 O   0  0  0  0  0  0  0  0  0  0  0  0
   -4.9877    0.1253   -0.0179 C   0  0  2  0  0  0  0  0  0  0  0  0
   -6.4952    0.0604   -0.1556 C   0  0  0  0  0  0  0  0  0  0  0  0
   -7.0888    0.2009   -1.4237 C   0  0  0  0  0  0  0  0  0  0  0  0
   -8.4767    0.1169   -1.5704 C   0  0  0  0  0  0  0  0  0  0  0  0
   -9.0381    0.2598   -2.7963 F   0  0  0  0  0  0  0  0  0  0  0  0
   -9.2854   -0.1186   -0.4564 C   0  0  0  0  0  0  0  0  0  0  0  0
   -8.7081   -0.2760    0.8053 C   0  0  0  0  0  0  0  0  0  0  0  0
   -7.3205   -0.1933    0.9603 C   0  0  0  0  0  0  0  0  0  0  0  0
   -6.7848   -0.3714    2.1947 F   0  0  0  0  0  0  0  0  0  0  0  0
   -4.3889   -1.2957    0.1215 C   0  0  1  0  0  0  0  0  0  0  0  0
   -4.1535   -1.8797   -1.2022 N   0  0  0  0  0  0  0  0  0  0  0  0
   -3.1022   -1.2695    0.9816 C   0  0  0  0  0  0  0  0  0  0  0  0
   -0.8370    1.4013   -0.6395 C   0  0  0  0  0  0  0  0  0  0  0  0
    6.0497    1.7137   -1.9989 H   0  0  0  0  0  0  0  0  0  0  0  0
    4.7160    1.3516   -3.1699 H   0  0  0  0  0  0  0  0  0  0  0  0
    4.5222    2.6833   -1.9586 H   0  0  0  0  0  0  0  0  0  0  0  0
    7.7610   -0.4062   -1.6291 H   0  0  0  0  0  0  0  0  0  0  0  0
    9.7499    0.9222   -1.0034 H   0  0  0  0  0  0  0  0  0  0  0  0
   10.3045    1.2844    1.3864 H   0  0  0  0  0  0  0  0  0  0  0  0
    8.8642    0.3119    3.1551 H   0  0  0  0  0  0  0  0  0  0  0  0
    6.8740   -1.0158    2.5459 H   0  0  0  0  0  0  0  0  0  0  0  0
    1.9875    2.5209   -0.9912 H   0  0  0  0  0  0  0  0  0  0  0  0
   -0.2918   -1.4190    0.3093 H   0  0  0  0  0  0  0  0  0  0  0  0
   -1.0346   -1.7531   -1.3238 H   0  0  0  0  0  0  0  0  0  0  0  0
   -1.5494    0.0739    1.6615 H   0  0  0  0  0  0  0  0  0  0  0  0
   -3.0219    1.7485    2.0264 H   0  0  0  0  0  0  0  0  0  0  0  0
   -3.1520    2.0588    0.2904 H   0  0  0  0  0  0  0  0  0  0  0  0
   -4.5815    0.6128   -0.9384 H   0  0  0  0  0  0  0  0  0  0  0  0
   -6.4770    0.3745   -2.3004 H   0  0  0  0  0  0  0  0  0  0  0  0
  -10.3597   -0.1851   -0.5707 H   0  0  0  0  0  0  0  0  0  0  0  0
   -9.3378   -0.4677    1.6647 H   0  0  0  0  0  0  0  0  0  0  0  0
   -5.1134   -1.9534    0.6538 H   0  0  0  0  0  0  0  0  0  0  0  0
   -3.4163   -1.3357   -1.7040 H   0  0  0  0  0  0  0  0  0  0  0  0
   -3.8001   -2.8570   -1.0843 H   0  0  0  0  0  0  0  0  0  0  0  0
   -2.4740   -2.1609    0.7773 H   0  0  0  0  0  0  0  0  0  0  0  0
   -3.4043   -1.3619    2.0490 H   0  0  0  0  0  0  0  0  0  0  0  0
   -1.3916    2.0983   -1.3020 H   0  0  0  0  0  0  0  0  0  0  0  0
   -0.6049    1.8899    0.3342 H   0  0  0  0  0  0  0  0  0  0  0  0
  1  2  1  0
  2  3  2  0
  2  4  2  0
  4  5  1  0
  5  6  2  0
  5  7  2  0
  5  8  1  0
  8  9  2  0
  9 10  1  0
 10 11  2  0
 11 12  1  0
 12 13  2  0
  2 14  1  0
 14 15  1  0
 15 16  2  0
 16 17  1  0
 17 18  2  0
 17 19  1  0
 19 20  1  0
 20 21  1  0
 21 22  1  0
 22 23  1  0
 23 24  1  0
 24 25  1  0
 25 26  2  0
 26 27  1  0
 27 28  1  0
 27 29  2  0
 29 30  1  0
 30 31  2  0
 31 32  1  0
 24 33  1  0
 33 34  1  0
 33 35  1  0
 20 36  1  0
 13  8  1  0
 18 14  1  0
 35 21  1  0
 36 16  1  0
 31 25  1  0
  1 37  1  0
  1 38  1  0
  1 39  1  0
  9 40  1  0
 10 41  1  0
 11 42  1  0
 12 43  1  0
 13 44  1  0
 15 45  1  0
 19 46  1  0
 19 47  1  0
 21 48  1  1
 22 49  1  0
 22 50  1  0
 24 51  1  6
 26 52  1  0
 29 53  1  0
 30 54  1  0
 33 55  1  1
 34 56  1  0
 34 57  1  0
 35 58  1  0
 35 59  1  0
 36 60  1  0
 36 61  1  0
M  END
$$$$
