
     RDKit          3D

 35 38  0  0  0  0  0  0  0  0999 V2000
    1.5102   -2.0937    0.3404 C   0  0  0  0  0  0  0  0  0  0  0  0
    0.9837   -0.6970    0.1634 C   0  0  0  0  0  0  0  0  0  0  0  0
   -0.3725   -0.5366    0.0726 N   0  0  0  0  0  0  0  0  0  0  0  0
   -0.8732    0.7032   -0.1238 C   0  0  0  0  0  0  0  0  0  0  0  0
   -0.0781    1.7919   -0.1996 C   0  0  0  0  0  0  0  0  0  0  0  0
   -0.9323    2.8667   -0.3247 C   0  0  0  0  0  0  0  0  0  0  0  0
   -2.2050    2.3969   -0.3156 N   0  0  0  0  0  0  0  0  0  0  0  0
   -2.1667    1.0713   -0.1991 N   0  0  0  0  0  0  0  0  0  0  0  0
   -3.3403    0.2393   -0.1331 C   0  0  0  0  0  0  0  0  0  0  0  0
   -3.3221   -1.0878   -0.6031 C   0  0  0  0  0  0  0  0  0  0  0  0
   -4.4750   -1.8766   -0.5382 C   0  0  0  0  0  0  0  0  0  0  0  0
   -5.6570   -1.3494   -0.0130 C   0  0  0  0  0  0  0  0  0  0  0  0
   -5.6905   -0.0295    0.4422 C   0  0  0  0  0  0  0  0  0  0  0  0
   -4.5406    0.7634    0.3785 C   0  0  0  0  0  0  0  0  0  0  0  0
    1.2976    1.6655   -0.0954 C   0  0  0  0  0  0  0  0  0  0  0  0
    2.0332    2.6900   -0.1450 O   0  0  0  0  0  0  0  0  0  0  0  0
    1.8278    0.4054    0.0872 N   0  0  0  0  0  0  0  0  0  0  0  0
    3.2574    0.2562    0.2033 C   0  0  0  0  0  0  0  0  0  0  0  0
    3.7957   -0.4033    1.2660 N   0  0  0  0  0  0  0  0  0  0  0  0
    5.1404   -0.5424    1.3973 C   0  0  0  0  0  0  0  0  0  0  0  0
    5.9923    0.0001    0.4367 C   0  0  0  0  0  0  0  0  0  0  0  0
    5.4289    0.6793   -0.6422 C   0  0  0  0  0  0  0  0  0  0  0  0
    4.0792    0.7967   -0.7387 N   0  0  0  0  0  0  0  0  0  0  0  0
    0.7163   -2.8376    0.1161 H   0  0  0  0  0  0  0  0  0  0  0  0
    2.3575   -2.2788   -0.3526 H   0  0  0  0  0  0  0  0  0  0  0  0
    1.8405   -2.2408    1.3894 H   0  0  0  0  0  0  0  0  0  0  0  0
   -0.6600    3.9112   -0.3968 H   0  0  0  0  0  0  0  0  0  0  0  0
   -2.4306   -1.5094   -1.0454 H   0  0  0  0  0  0  0  0  0  0  0  0
   -4.4539   -2.8955   -0.9030 H   0  0  0  0  0  0  0  0  0  0  0  0
   -6.5483   -1.9616    0.0353 H   0  0  0  0  0  0  0  0  0  0  0  0
   -6.6080    0.3800    0.8446 H   0  0  0  0  0  0  0  0  0  0  0  0
   -4.5831    1.7831    0.7396 H   0  0  0  0  0  0  0  0  0  0  0  0
    5.5469   -1.0727    2.2480 H   0  0  0  0  0  0  0  0  0  0  0  0
    7.0659   -0.1017    0.5276 H   0  0  0  0  0  0  0  0  0  0  0  0
    6.0636    1.1143   -1.4026 H   0  0  0  0  0  0  0  0  0  0  0  0
  1  2  1  0
  2  3  2  0
  3  4  1  0
  4  5  2  0
  5  6  1  0
  6  7  2  0
  7  8  1  0
  8  9  1  0
  9 10  2  0
 10 11  1  0
 11 12  2  0
 12 13  1  0
 13 14  2  0
  5 15  1  0
 15 16  2  0
 15 17  1  0
 17 18  1  0
 18 19  2  0
 19 20  1  0
 20 21  2  0
 21 22  1  0
 22 23  2  0
 17  2  1  0
 23 18  1  0
  8  4  1  0
 14  9  1  0
  1 24  1  0
  1 25  1  0
  1 26  1  0
  6 27  1  0
 10 28  1  0
 11 29  1  0
 12 30  1  0
 13 31  1  0
 14 32  1  0
 20 33  1  0
 21 34  1  0
 22 35  1  0
M  END
$$$$
