
     RDKit          3D

 49 50  0  0  0  0  0  0  0  0999 V2000
   -3.5450    1.1828    1.9085 C   0  0  0  0  0  0  0  0  0  0  0  0
   -2.7617    1.5430    0.6314 C   0  0  0  0  0  0  0  0  0  0  0  0
   -1.2843    1.8281    0.9697 C   0  0  0  0  0  0  0  0  0  0  0  0
   -3.3784    2.8187    0.0218 C   0  0  0  0  0  0  0  0  0  0  0  0
   -2.8558    0.4467   -0.3525 N   0  0  0  0  0  0  0  0  0  0  0  0
   -2.2913   -0.8648   -0.1746 C   0  0  0  0  0  0  0  0  0  0  0  0
   -1.8834   -1.2395    0.9583 O   0  0  0  0  0  0  0  0  0  0  0  0
   -2.0924   -1.7633   -1.3705 C   0  0  2  0  0  0  0  0  0  0  0  0
   -2.3884   -3.2308   -1.0510 C   0  0  0  0  0  0  0  0  0  0  0  0
   -1.0297   -3.8792   -0.7925 C   0  0  0  0  0  0  0  0  0  0  0  0
   -0.0030   -2.9856   -1.4794 C   0  0  0  0  0  0  0  0  0  0  0  0
   -0.6918   -1.7360   -1.7610 N   0  0  0  0  0  0  0  0  0  0  0  0
   -0.0606   -0.5825   -2.3462 C   0  0  0  0  0  0  0  0  0  0  0  0
   -0.7688    0.3537   -2.8062 O   0  0  0  0  0  0  0  0  0  0  0  0
    1.4326   -0.4288   -2.3390 C   0  0  0  0  0  0  0  0  0  0  0  0
    1.8983   -0.0841   -0.9964 N   0  0  0  0  0  0  0  0  0  0  0  0
    3.2856    0.1669   -0.7266 C   0  0  0  0  0  0  0  0  0  0  0  0
    4.1462   -0.0777   -1.6162 O   0  0  0  0  0  0  0  0  0  0  0  0
    3.7260    0.6927    0.5880 C   0  0  0  0  0  0  0  0  0  0  0  0
    2.8547    1.4447    1.3998 C   0  0  0  0  0  0  0  0  0  0  0  0
    3.2863    1.9362    2.6356 C   0  0  0  0  0  0  0  0  0  0  0  0
    4.5899    1.6903    3.0719 C   0  0  0  0  0  0  0  0  0  0  0  0
    5.4672    0.9569    2.2704 C   0  0  0  0  0  0  0  0  0  0  0  0
    5.0413    0.4633    1.0333 C   0  0  0  0  0  0  0  0  0  0  0  0
   -3.5739    2.0477    2.6060 H   0  0  0  0  0  0  0  0  0  0  0  0
   -4.5891    0.9017    1.6523 H   0  0  0  0  0  0  0  0  0  0  0  0
   -3.0777    0.3355    2.4495 H   0  0  0  0  0  0  0  0  0  0  0  0
   -1.1976    2.7188    1.6289 H   0  0  0  0  0  0  0  0  0  0  0  0
   -0.7069    2.0196    0.0394 H   0  0  0  0  0  0  0  0  0  0  0  0
   -0.8155    0.9734    1.4988 H   0  0  0  0  0  0  0  0  0  0  0  0
   -4.4458    2.6483   -0.2370 H   0  0  0  0  0  0  0  0  0  0  0  0
   -3.3229    3.6686    0.7363 H   0  0  0  0  0  0  0  0  0  0  0  0
   -2.8372    3.1060   -0.9057 H   0  0  0  0  0  0  0  0  0  0  0  0
   -3.2909    0.6486   -1.2819 H   0  0  0  0  0  0  0  0  0  0  0  0
   -2.7335   -1.4355   -2.2185 H   0  0  0  0  0  0  0  0  0  0  0  0
   -2.8539   -3.7115   -1.9398 H   0  0  0  0  0  0  0  0  0  0  0  0
   -3.0748   -3.3589   -0.1850 H   0  0  0  0  0  0  0  0  0  0  0  0
   -0.9951   -4.9167   -1.1904 H   0  0  0  0  0  0  0  0  0  0  0  0
   -0.8329   -3.9022    0.3019 H   0  0  0  0  0  0  0  0  0  0  0  0
    0.8666   -2.8101   -0.8097 H   0  0  0  0  0  0  0  0  0  0  0  0
    0.3372   -3.4460   -2.4320 H   0  0  0  0  0  0  0  0  0  0  0  0
    1.7261    0.3763   -3.0473 H   0  0  0  0  0  0  0  0  0  0  0  0
    1.9131   -1.3722   -2.6742 H   0  0  0  0  0  0  0  0  0  0  0  0
    1.2140   -0.0705   -0.2063 H   0  0  0  0  0  0  0  0  0  0  0  0
    1.8496    1.6775    1.0755 H   0  0  0  0  0  0  0  0  0  0  0  0
    2.6107    2.5146    3.2526 H   0  0  0  0  0  0  0  0  0  0  0  0
    4.9218    2.0726    4.0286 H   0  0  0  0  0  0  0  0  0  0  0  0
    6.4786    0.7700    2.6077 H   0  0  0  0  0  0  0  0  0  0  0  0
    5.7367   -0.1073    0.4302 H   0  0  0  0  0  0  0  0  0  0  0  0
  1  2  1  0
  2  3  1  0
  2  4  1  0
  2  5  1  0
  5  6  1  0
  6  7  2  0
  6  8  1  0
  8  9  1  0
  9 10  1  0
 10 11  1  0
 11 12  1  0
 12 13  1  0
 13 14  2  0
 13 15  1  0
 15 16  1  0
 16 17  1  0
 17 18  2  0
 17 19  1  0
 19 20  2  0
 20 21  1  0
 21 22  2  0
 22 23  1  0
 23 24  2  0
 12  8  1  0
 24 19  1  0
  1 25  1  0
  1 26  1  0
  1 27  1  0
  3 28  1  0
  3 29  1  0
  3 30  1  0
  4 31  1  0
  4 32  1  0
  4 33  1  0
  5 34  1  0
  8 35  1  6
  9 36  1  0
  9 37  1  0
 10 38  1  0
 10 39  1  0
 11 40  1  0
 11 41  1  0
 15 42  1  0
 15 43  1  0
 16 44  1  0
 20 45  1  0
 21 46  1  0
 22 47  1  0
 23 48  1  0
 24 49  1  0
M  END
$$$$
