
     RDKit          3D

 33 35  0  0  0  0  0  0  0  0999 V2000
   -1.1229    2.2954    0.9613 N   0  0  0  0  0  0  0  0  0  0  0  0
   -0.2513    1.1352    0.7559 C   0  0  0  0  0  0  0  0  0  0  0  0
    1.2314    1.5618    0.7154 C   0  0  0  0  0  0  0  0  0  0  0  0
    2.1278    0.4123    0.3321 C   0  0  0  0  0  0  0  0  0  0  0  0
    3.4917    0.4383    0.6612 C   0  0  0  0  0  0  0  0  0  0  0  0
    4.3311   -0.6132    0.2765 C   0  0  0  0  0  0  0  0  0  0  0  0
    5.6808   -0.5755    0.6190 O   0  0  0  0  0  0  0  0  0  0  0  0
    3.8086   -1.6923   -0.4496 C   0  0  0  0  0  0  0  0  0  0  0  0
    2.4545   -1.7162   -0.7946 C   0  0  0  0  0  0  0  0  0  0  0  0
    1.6142   -0.6644   -0.4165 C   0  0  0  0  0  0  0  0  0  0  0  0
    0.2593   -0.7041   -0.7642 O   0  0  0  0  0  0  0  0  0  0  0  0
   -0.6214    0.4024   -0.5529 C   0  0  0  0  0  0  0  0  0  0  0  0
   -2.0515   -0.0909   -0.5187 C   0  0  0  0  0  0  0  0  0  0  0  0
   -2.3867   -1.2286    0.2387 C   0  0  0  0  0  0  0  0  0  0  0  0
   -3.7100   -1.6757    0.2988 C   0  0  0  0  0  0  0  0  0  0  0  0
   -4.0187   -2.7762    1.0285 F   0  0  0  0  0  0  0  0  0  0  0  0
   -4.7132   -0.9870   -0.3884 C   0  0  0  0  0  0  0  0  0  0  0  0
   -5.9974   -1.4187   -0.3296 F   0  0  0  0  0  0  0  0  0  0  0  0
   -4.3944    0.1518   -1.1324 C   0  0  0  0  0  0  0  0  0  0  0  0
   -3.0724    0.6045   -1.1968 C   0  0  0  0  0  0  0  0  0  0  0  0
   -2.7939    1.7220   -1.9150 F   0  0  0  0  0  0  0  0  0  0  0  0
   -0.9442    3.0025    0.2110 H   0  0  0  0  0  0  0  0  0  0  0  0
   -0.8777    2.7402    1.8757 H   0  0  0  0  0  0  0  0  0  0  0  0
   -0.3889    0.4334    1.6098 H   0  0  0  0  0  0  0  0  0  0  0  0
    1.3729    2.3767   -0.0274 H   0  0  0  0  0  0  0  0  0  0  0  0
    1.5236    1.9499    1.7158 H   0  0  0  0  0  0  0  0  0  0  0  0
    3.9019    1.2729    1.2167 H   0  0  0  0  0  0  0  0  0  0  0  0
    6.3150   -1.3206    0.3552 H   0  0  0  0  0  0  0  0  0  0  0  0
    4.4513   -2.5102   -0.7495 H   0  0  0  0  0  0  0  0  0  0  0  0
    2.0578   -2.5506   -1.3587 H   0  0  0  0  0  0  0  0  0  0  0  0
   -0.4805    1.1049   -1.4041 H   0  0  0  0  0  0  0  0  0  0  0  0
   -1.6221   -1.7677    0.7845 H   0  0  0  0  0  0  0  0  0  0  0  0
   -5.1744    0.6878   -1.6579 H   0  0  0  0  0  0  0  0  0  0  0  0
  1  2  1  0
  2  3  1  0
  3  4  1  0
  4  5  2  0
  5  6  1  0
  6  7  1  0
  6  8  2  0
  8  9  1  0
  9 10  2  0
 10 11  1  0
 11 12  1  0
 12 13  1  0
 13 14  2  0
 14 15  1  0
 15 16  1  0
 15 17  2  0
 17 18  1  0
 17 19  1  0
 19 20  2  0
 20 21  1  0
 12  2  1  0
 20 13  1  0
 10  4  1  0
  1 22  1  0
  1 23  1  0
  2 24  1  0
  3 25  1  0
  3 26  1  0
  5 27  1  0
  7 28  1  0
  8 29  1  0
  9 30  1  0
 12 31  1  0
 14 32  1  0
 19 33  1  0
M  END
$$$$
