
     RDKit          3D

 55 57  0  0  0  0  0  0  0  0999 V2000
    1.4850    1.9000    2.9369 C   0  0  0  0  0  0  0  0  0  0  0  0
    0.8548    1.6205    1.5510 C   0  0  0  0  0  0  0  0  0  0  0  0
    0.7214    0.0890    1.3584 C   0  0  0  0  0  0  0  0  0  0  0  0
   -0.5628    2.2580    1.5317 C   0  0  0  0  0  0  0  0  0  0  0  0
   -1.2262    2.1569    0.1770 C   0  0  0  0  0  0  0  0  0  0  0  0
   -0.9537    3.0285   -0.6928 O   0  0  0  0  0  0  0  0  0  0  0  0
   -2.1077    1.0669   -0.1620 N   0  0  0  0  0  0  0  0  0  0  0  0
   -2.0515    0.4790   -1.5045 C   0  0  0  0  0  0  0  0  0  0  0  0
   -3.4612    0.3661   -2.0719 C   0  0  0  0  0  0  0  0  0  0  0  0
   -4.3611   -0.3654   -1.1142 C   0  0  0  0  0  0  0  0  0  0  0  0
   -5.4818   -1.0545   -1.6053 C   0  0  0  0  0  0  0  0  0  0  0  0
   -6.3493   -1.7079   -0.7270 C   0  0  0  0  0  0  0  0  0  0  0  0
   -6.1133   -1.6686    0.6480 C   0  0  0  0  0  0  0  0  0  0  0  0
   -5.0116   -0.9717    1.1500 C   0  0  0  0  0  0  0  0  0  0  0  0
   -4.1310   -0.3098    0.2793 C   0  0  0  0  0  0  0  0  0  0  0  0
   -2.9545    0.4396    0.8642 C   0  0  0  0  0  0  0  0  0  0  0  0
    1.6576    2.2519    0.4695 N   0  0  0  0  0  0  0  0  0  0  0  0
    2.9464    1.6121    0.1509 C   0  0  0  0  0  0  0  0  0  0  0  0
    2.7696    0.6258   -0.9721 C   0  0  0  0  0  0  0  0  0  0  0  0
    2.0466    0.9499   -1.9537 O   0  0  0  0  0  0  0  0  0  0  0  0
    3.4146   -0.6632   -0.9654 N   0  0  0  0  0  0  0  0  0  0  0  0
    2.9902   -1.7374   -1.8473 C   0  0  0  0  0  0  0  0  0  0  0  0
    3.6800   -2.9922   -1.3315 C   0  0  0  0  0  0  0  0  0  0  0  0
    4.8390   -2.5038   -0.4682 C   0  0  0  0  0  0  0  0  0  0  0  0
    4.4701   -1.0786   -0.0491 C   0  0  1  0  0  0  0  0  0  0  0  0
    5.6342   -0.1816   -0.1476 C   0  0  0  0  0  0  0  0  0  0  0  0
    6.5480    0.5243   -0.2247 N   0  0  0  0  0  0  0  0  0  0  0  0
    1.6299    2.9909    3.0900 H   0  0  0  0  0  0  0  0  0  0  0  0
    2.4678    1.3995    3.0512 H   0  0  0  0  0  0  0  0  0  0  0  0
    0.8244    1.5221    3.7471 H   0  0  0  0  0  0  0  0  0  0  0  0
    0.3583   -0.1527    0.3381 H   0  0  0  0  0  0  0  0  0  0  0  0
    1.6916   -0.4258    1.5137 H   0  0  0  0  0  0  0  0  0  0  0  0
    0.0094   -0.3363    2.0971 H   0  0  0  0  0  0  0  0  0  0  0  0
   -0.4845    3.3367    1.7929 H   0  0  0  0  0  0  0  0  0  0  0  0
   -1.1987    1.8004    2.3179 H   0  0  0  0  0  0  0  0  0  0  0  0
   -1.4310    1.0914   -2.1941 H   0  0  0  0  0  0  0  0  0  0  0  0
   -1.5894   -0.5306   -1.4424 H   0  0  0  0  0  0  0  0  0  0  0  0
   -3.4139   -0.1680   -3.0460 H   0  0  0  0  0  0  0  0  0  0  0  0
   -3.8726    1.3834   -2.2478 H   0  0  0  0  0  0  0  0  0  0  0  0
   -5.6833   -1.0858   -2.6690 H   0  0  0  0  0  0  0  0  0  0  0  0
   -7.2078   -2.2422   -1.1128 H   0  0  0  0  0  0  0  0  0  0  0  0
   -6.7876   -2.1749    1.3267 H   0  0  0  0  0  0  0  0  0  0  0  0
   -4.8447   -0.9445    2.2199 H   0  0  0  0  0  0  0  0  0  0  0  0
   -2.3405   -0.2633    1.4653 H   0  0  0  0  0  0  0  0  0  0  0  0
   -3.3590    1.2261    1.5379 H   0  0  0  0  0  0  0  0  0  0  0  0
    1.8350    3.2552    0.7142 H   0  0  0  0  0  0  0  0  0  0  0  0
    3.4014    1.1455    1.0441 H   0  0  0  0  0  0  0  0  0  0  0  0
    3.6648    2.3848   -0.2007 H   0  0  0  0  0  0  0  0  0  0  0  0
    3.3107   -1.5130   -2.8877 H   0  0  0  0  0  0  0  0  0  0  0  0
    1.8855   -1.8598   -1.8091 H   0  0  0  0  0  0  0  0  0  0  0  0
    2.9708   -3.5747   -0.7028 H   0  0  0  0  0  0  0  0  0  0  0  0
    4.0364   -3.6317   -2.1681 H   0  0  0  0  0  0  0  0  0  0  0  0
    5.7705   -2.5239   -1.0789 H   0  0  0  0  0  0  0  0  0  0  0  0
    4.9800   -3.1596    0.4186 H   0  0  0  0  0  0  0  0  0  0  0  0
    4.0849   -1.0832    0.9930 H   0  0  0  0  0  0  0  0  0  0  0  0
  1  2  1  0
  2  3  1  0
  2  4  1  0
  4  5  1  0
  5  6  2  0
  5  7  1  0
  7  8  1  0
  8  9  1  0
  9 10  1  0
 10 11  2  0
 11 12  1  0
 12 13  2  0
 13 14  1  0
 14 15  2  0
 15 16  1  0
  2 17  1  0
 17 18  1  0
 18 19  1  0
 19 20  2  0
 19 21  1  0
 21 22  1  0
 22 23  1  0
 23 24  1  0
 24 25  1  0
 25 26  1  0
 26 27  3  0
 16  7  1  0
 25 21  1  0
 15 10  1  0
  1 28  1  0
  1 29  1  0
  1 30  1  0
  3 31  1  0
  3 32  1  0
  3 33  1  0
  4 34  1  0
  4 35  1  0
  8 36  1  0
  8 37  1  0
  9 38  1  0
  9 39  1  0
 11 40  1  0
 12 41  1  0
 13 42  1  0
 14 43  1  0
 16 44  1  0
 16 45  1  0
 17 46  1  0
 18 47  1  0
 18 48  1  0
 22 49  1  0
 22 50  1  0
 23 51  1  0
 23 52  1  0
 24 53  1  0
 24 54  1  0
 25 55  1  1
M  END
$$$$
