
     RDKit          3D

 56 58  0  0  0  0  0  0  0  0999 V2000
   -1.4722    2.1535    1.0195 C   0  0  0  0  0  0  0  0  0  0  0  0
   -2.4363    1.8669   -0.0988 C   0  0  0  0  0  0  0  0  0  0  0  0
   -3.7131    2.4545   -0.0514 C   0  0  0  0  0  0  0  0  0  0  0  0
   -4.6276    2.2547   -1.0854 C   0  0  0  0  0  0  0  0  0  0  0  0
   -4.2793    1.4712   -2.1833 C   0  0  0  0  0  0  0  0  0  0  0  0
   -5.1627    1.2947   -3.1966 F   0  0  0  0  0  0  0  0  0  0  0  0
   -3.0229    0.8661   -2.2399 C   0  0  0  0  0  0  0  0  0  0  0  0
   -2.0994    1.0175   -1.1871 C   0  0  0  0  0  0  0  0  0  0  0  0
   -0.7496    0.3299   -1.3024 C   0  0  0  0  0  0  0  0  0  0  0  0
   -0.4574   -0.5343   -0.1461 N   0  0  0  0  0  0  0  0  0  0  0  0
    0.5890   -0.4203    0.7251 C   0  0  0  0  0  0  0  0  0  0  0  0
    1.6976    0.4831    0.5637 N   0  0  0  0  0  0  0  0  0  0  0  0
    2.1839    1.2364    1.7287 C   0  0  0  0  0  0  0  0  0  0  0  0
    3.3673    2.1332    1.3562 C   0  0  0  0  0  0  0  0  0  0  0  0
    4.4896    1.3332    0.6712 C   0  0  0  0  0  0  0  0  0  0  0  0
    3.9829    0.2860   -0.3788 C   0  0  1  0  0  0  0  0  0  0  0  0
    4.7813    0.4403   -1.6876 C   0  0  0  0  0  0  0  0  0  0  0  0
    4.2145   -1.0713    0.1408 N   0  0  0  0  0  0  0  0  0  0  0  0
    2.4747    0.4827   -0.6839 C   0  0  0  0  0  0  0  0  0  0  0  0
    0.5026   -1.3558    1.7527 C   0  0  0  0  0  0  0  0  0  0  0  0
   -0.6243   -2.0780    1.4577 C   0  0  0  0  0  0  0  0  0  0  0  0
   -1.1282   -3.1484    2.1103 N   0  0  0  0  0  0  0  0  0  0  0  0
   -2.2389   -3.7577    1.6061 C   0  0  0  0  0  0  0  0  0  0  0  0
   -2.8244   -3.3078    0.4438 N   0  0  0  0  0  0  0  0  0  0  0  0
   -3.9890   -4.0175   -0.0983 C   0  0  0  0  0  0  0  0  0  0  0  0
   -2.2861   -2.2401   -0.2376 C   0  0  0  0  0  0  0  0  0  0  0  0
   -2.7640   -1.8814   -1.3462 O   0  0  0  0  0  0  0  0  0  0  0  0
   -1.1755   -1.5904    0.3113 C   0  0  0  0  0  0  0  0  0  0  0  0
    0.6878    0.0000    0.0000 Cl  0  0  0  0  0  0  0  0  0  0  0  0
   -1.4232    1.2834    1.7056 H   0  0  0  0  0  0  0  0  0  0  0  0
   -1.7880    3.0402    1.6093 H   0  0  0  0  0  0  0  0  0  0  0  0
   -0.4670    2.3778    0.6095 H   0  0  0  0  0  0  0  0  0  0  0  0
   -3.9996    3.0821    0.7837 H   0  0  0  0  0  0  0  0  0  0  0  0
   -5.6041    2.7195   -1.0397 H   0  0  0  0  0  0  0  0  0  0  0  0
   -2.7758    0.2631   -3.1050 H   0  0  0  0  0  0  0  0  0  0  0  0
    0.0112    1.1257   -1.4062 H   0  0  0  0  0  0  0  0  0  0  0  0
   -0.6872   -0.2857   -2.2256 H   0  0  0  0  0  0  0  0  0  0  0  0
    1.3654    1.8683    2.1332 H   0  0  0  0  0  0  0  0  0  0  0  0
    2.5039    0.5317    2.5258 H   0  0  0  0  0  0  0  0  0  0  0  0
    3.7643    2.6244    2.2708 H   0  0  0  0  0  0  0  0  0  0  0  0
    3.0139    2.9349    0.6712 H   0  0  0  0  0  0  0  0  0  0  0  0
    5.1808    2.0698    0.2048 H   0  0  0  0  0  0  0  0  0  0  0  0
    5.0859    0.8218    1.4592 H   0  0  0  0  0  0  0  0  0  0  0  0
    4.6467    1.4584   -2.1130 H   0  0  0  0  0  0  0  0  0  0  0  0
    4.4425   -0.3011   -2.4431 H   0  0  0  0  0  0  0  0  0  0  0  0
    5.8641    0.2753   -1.4993 H   0  0  0  0  0  0  0  0  0  0  0  0
    3.8441   -1.7778   -0.5369 H   0  0  0  0  0  0  0  0  0  0  0  0
    3.6889   -1.2046    1.0351 H   0  0  0  0  0  0  0  0  0  0  0  0
    2.3233    1.4552   -1.2016 H   0  0  0  0  0  0  0  0  0  0  0  0
    2.1185   -0.3194   -1.3686 H   0  0  0  0  0  0  0  0  0  0  0  0
    1.1972   -1.5224    2.5650 H   0  0  0  0  0  0  0  0  0  0  0  0
   -2.6434   -4.6145    2.1305 H   0  0  0  0  0  0  0  0  0  0  0  0
   -4.7677   -3.2912   -0.4162 H   0  0  0  0  0  0  0  0  0  0  0  0
   -3.6794   -4.6285   -0.9724 H   0  0  0  0  0  0  0  0  0  0  0  0
   -4.4481   -4.6876    0.6605 H   0  0  0  0  0  0  0  0  0  0  0  0
   -0.6878    0.0000    0.0000 H   0  0  0  0  0  0  0  0  0  0  0  0
  1  2  1  0
  2  3  2  0
  3  4  1  0
  4  5  2  0
  5  6  1  0
  5  7  1  0
  7  8  2  0
  8  9  1  0
  9 10  1  0
 10 11  1  0
 11 12  1  0
 12 13  1  0
 13 14  1  0
 14 15  1  0
 15 16  1  0
 16 17  1  0
 16 18  1  1
 16 19  1  0
 11 20  2  0
 20 21  1  0
 21 22  1  0
 22 23  2  0
 23 24  1  0
 24 25  1  0
 24 26  1  0
 26 27  2  0
 26 28  1  0
  8  2  1  0
 28 10  1  0
 19 12  1  0
 28 21  2  0
  1 30  1  0
  1 31  1  0
  1 32  1  0
  3 33  1  0
  4 34  1  0
  7 35  1  0
  9 36  1  0
  9 37  1  0
 13 38  1  0
 13 39  1  0
 14 40  1  0
 14 41  1  0
 15 42  1  0
 15 43  1  0
 17 44  1  0
 17 45  1  0
 17 46  1  0
 18 47  1  0
 18 48  1  0
 19 49  1  0
 19 50  1  0
 20 51  1  0
 23 52  1  0
 25 53  1  0
 25 54  1  0
 25 55  1  0
 29 56  1  0
M  END
$$$$
