
     RDKit          3D

 44 46  0  0  0  0  0  0  0  0999 V2000
   -6.6493   -1.0357   -2.0007 N   0  0  0  0  0  0  0  0  0  0  0  0
   -5.6503   -0.2620   -1.3369 C   0  0  0  0  0  0  0  0  0  0  0  0
   -5.3539    0.8811   -1.7786 O   0  0  0  0  0  0  0  0  0  0  0  0
   -4.9845   -0.7877   -0.0896 C   0  0  2  0  0  0  0  0  0  0  0  0
   -5.5386   -0.0952    1.1556 C   0  0  0  0  0  0  0  0  0  0  0  0
   -4.5295    0.9975    1.4956 C   0  0  0  0  0  0  0  0  0  0  0  0
   -3.2095    0.5375    0.8898 C   0  0  0  0  0  0  0  0  0  0  0  0
   -3.5597   -0.4783   -0.0936 N   0  0  0  0  0  0  0  0  0  0  0  0
   -2.6319   -1.0386   -1.0446 C   0  0  0  0  0  0  0  0  0  0  0  0
   -3.0691   -1.6796   -2.0386 O   0  0  0  0  0  0  0  0  0  0  0  0
   -1.1738   -0.8605   -0.9037 C   0  0  0  0  0  0  0  0  0  0  0  0
   -0.4149   -0.4166   -1.9965 C   0  0  0  0  0  0  0  0  0  0  0  0
    0.9689   -0.2594   -1.8773 C   0  0  0  0  0  0  0  0  0  0  0  0
    1.6154   -0.5411   -0.6652 C   0  0  0  0  0  0  0  0  0  0  0  0
    3.0430   -0.3941   -0.5774 N   0  0  0  0  0  0  0  0  0  0  0  0
    3.7295    0.0755    0.5988 C   0  0  0  0  0  0  0  0  0  0  0  0
    3.0679    0.4749    1.5958 O   0  0  0  0  0  0  0  0  0  0  0  0
    5.2108    0.1087    0.6635 C   0  0  0  0  0  0  0  0  0  0  0  0
    5.9934    0.3015   -0.4916 C   0  0  0  0  0  0  0  0  0  0  0  0
    7.3889    0.3344   -0.4032 C   0  0  0  0  0  0  0  0  0  0  0  0
    8.0179    0.1828    0.8342 C   0  0  0  0  0  0  0  0  0  0  0  0
    7.2526    0.0046    1.9883 C   0  0  0  0  0  0  0  0  0  0  0  0
    5.8572   -0.0280    1.9064 C   0  0  0  0  0  0  0  0  0  0  0  0
    0.8603   -1.0320    0.4145 C   0  0  0  0  0  0  0  0  0  0  0  0
   -0.5237   -1.1895    0.2951 C   0  0  0  0  0  0  0  0  0  0  0  0
   -6.9270   -1.9745   -1.6379 H   0  0  0  0  0  0  0  0  0  0  0  0
   -7.1176   -0.6666   -2.8578 H   0  0  0  0  0  0  0  0  0  0  0  0
   -5.1286   -1.8877   -0.0078 H   0  0  0  0  0  0  0  0  0  0  0  0
   -5.5775   -0.8257    1.9938 H   0  0  0  0  0  0  0  0  0  0  0  0
   -6.5583    0.3244    1.0059 H   0  0  0  0  0  0  0  0  0  0  0  0
   -4.4456    1.1444    2.5944 H   0  0  0  0  0  0  0  0  0  0  0  0
   -4.8452    1.9528    1.0214 H   0  0  0  0  0  0  0  0  0  0  0  0
   -2.6836    1.3870    0.4024 H   0  0  0  0  0  0  0  0  0  0  0  0
   -2.5706    0.0976    1.6827 H   0  0  0  0  0  0  0  0  0  0  0  0
   -0.8957   -0.1817   -2.9383 H   0  0  0  0  0  0  0  0  0  0  0  0
    1.5388    0.0925   -2.7283 H   0  0  0  0  0  0  0  0  0  0  0  0
    3.5913   -0.5975   -1.4414 H   0  0  0  0  0  0  0  0  0  0  0  0
    5.5374    0.4575   -1.4592 H   0  0  0  0  0  0  0  0  0  0  0  0
    7.9832    0.4858   -1.2952 H   0  0  0  0  0  0  0  0  0  0  0  0
    9.0979    0.2096    0.8995 H   0  0  0  0  0  0  0  0  0  0  0  0
    7.7406   -0.1086    2.9477 H   0  0  0  0  0  0  0  0  0  0  0  0
    5.2830   -0.1725    2.8134 H   0  0  0  0  0  0  0  0  0  0  0  0
    1.3410   -1.3277    1.3374 H   0  0  0  0  0  0  0  0  0  0  0  0
   -1.0804   -1.6006    1.1273 H   0  0  0  0  0  0  0  0  0  0  0  0
  1  2  1  0
  2  3  2  0
  2  4  1  0
  4  5  1  0
  5  6  1  0
  6  7  1  0
  7  8  1  0
  8  9  1  0
  9 10  2  0
  9 11  1  0
 11 12  2  0
 12 13  1  0
 13 14  2  0
 14 15  1  0
 15 16  1  0
 16 17  2  0
 16 18  1  0
 18 19  2  0
 19 20  1  0
 20 21  2  0
 21 22  1  0
 22 23  2  0
 14 24  1  0
 24 25  2  0
  8  4  1  0
 25 11  1  0
 23 18  1  0
  1 26  1  0
  1 27  1  0
  4 28  1  1
  5 29  1  0
  5 30  1  0
  6 31  1  0
  6 32  1  0
  7 33  1  0
  7 34  1  0
 12 35  1  0
 13 36  1  0
 15 37  1  0
 19 38  1  0
 20 39  1  0
 21 40  1  0
 22 41  1  0
 23 42  1  0
 24 43  1  0
 25 44  1  0
M  END
$$$$
