
     RDKit          3D

 45 48  0  0  0  0  0  0  0  0999 V2000
   -6.1426   -1.3531    1.4510 N   0  0  0  0  0  0  0  0  0  0  0  0
   -5.8247   -0.6162    0.6170 C   0  0  0  0  0  0  0  0  0  0  0  0
   -5.4388    0.3033   -0.4235 C   0  0  0  0  0  0  0  0  0  0  0  0
   -6.3907    0.6645   -1.3852 C   0  0  0  0  0  0  0  0  0  0  0  0
   -6.0773    1.6092   -2.3615 C   0  0  0  0  0  0  0  0  0  0  0  0
   -4.8127    2.1942   -2.3625 C   0  0  0  0  0  0  0  0  0  0  0  0
   -3.8961    1.8333   -1.4272 N   0  0  0  0  0  0  0  0  0  0  0  0
   -4.1588    0.9025   -0.4663 C   0  0  0  0  0  0  0  0  0  0  0  0
   -3.1247    0.5683    0.4790 N   0  0  0  0  0  0  0  0  0  0  0  0
   -2.6920   -0.7985    0.7391 C   0  0  0  0  0  0  0  0  0  0  0  0
   -1.3466   -0.6973    1.4413 C   0  0  2  0  0  0  0  0  0  0  0  0
   -1.0224    0.7848    1.5831 C   0  0  2  0  0  0  0  0  0  0  0  0
   -2.1728    1.5598    0.9586 C   0  0  0  0  0  0  0  0  0  0  0  0
   -0.2131   -0.0836    0.6251 C   0  0  1  0  0  0  0  0  0  0  0  0
    1.1399   -0.3853    1.1129 N   0  0  0  0  0  0  0  0  0  0  0  0
    1.6451   -1.5797    0.4324 C   0  0  0  0  0  0  0  0  0  0  0  0
    3.0845   -1.8032    0.7992 C   0  0  0  0  0  0  0  0  0  0  0  0
    3.3653   -2.7166    1.6219 O   0  0  0  0  0  0  0  0  0  0  0  0
    4.1370   -0.9718    0.2719 N   0  0  0  0  0  0  0  0  0  0  0  0
    5.5056   -1.0508    0.7580 C   0  0  0  0  0  0  0  0  0  0  0  0
    6.2925   -0.0238   -0.0488 C   0  0  1  0  0  0  0  0  0  0  0  0
    6.9930   -0.6580   -1.0621 F   0  0  0  0  0  0  0  0  0  0  0  0
    5.2461    0.9095   -0.6540 C   0  0  0  0  0  0  0  0  0  0  0  0
    3.9486    0.1023   -0.6949 C   0  0  1  0  0  0  0  0  0  0  0  0
    3.7239   -0.4619   -2.0360 C   0  0  0  0  0  0  0  0  0  0  0  0
    3.5468   -0.9061   -3.0898 N   0  0  0  0  0  0  0  0  0  0  0  0
   -7.3809    0.2245   -1.3721 H   0  0  0  0  0  0  0  0  0  0  0  0
   -6.8118    1.8931   -3.1040 H   0  0  0  0  0  0  0  0  0  0  0  0
   -4.5576    2.9354   -3.1080 H   0  0  0  0  0  0  0  0  0  0  0  0
   -3.4052   -1.3108    1.4140 H   0  0  0  0  0  0  0  0  0  0  0  0
   -2.5893   -1.3644   -0.2119 H   0  0  0  0  0  0  0  0  0  0  0  0
   -1.1141   -1.3006    2.3451 H   0  0  0  0  0  0  0  0  0  0  0  0
   -0.5990    1.0625    2.5724 H   0  0  0  0  0  0  0  0  0  0  0  0
   -1.7921    2.1864    0.1235 H   0  0  0  0  0  0  0  0  0  0  0  0
   -2.6573    2.2042    1.7220 H   0  0  0  0  0  0  0  0  0  0  0  0
   -0.3587    0.1068   -0.4618 H   0  0  0  0  0  0  0  0  0  0  0  0
    1.1365   -0.5754    2.1440 H   0  0  0  0  0  0  0  0  0  0  0  0
    1.0414   -2.4691    0.7247 H   0  0  0  0  0  0  0  0  0  0  0  0
    1.5639   -1.4658   -0.6698 H   0  0  0  0  0  0  0  0  0  0  0  0
    5.9123   -2.0745    0.6077 H   0  0  0  0  0  0  0  0  0  0  0  0
    5.5310   -0.7925    1.8391 H   0  0  0  0  0  0  0  0  0  0  0  0
    7.0066    0.5348    0.5946 H   0  0  0  0  0  0  0  0  0  0  0  0
    5.5600    1.2907   -1.6516 H   0  0  0  0  0  0  0  0  0  0  0  0
    5.1086    1.7817    0.0229 H   0  0  0  0  0  0  0  0  0  0  0  0
    3.0906    0.7478   -0.4097 H   0  0  0  0  0  0  0  0  0  0  0  0
  1  2  3  0
  2  3  1  0
  3  4  2  0
  4  5  1  0
  5  6  2  0
  6  7  1  0
  7  8  2  0
  8  9  1  0
  9 10  1  0
 10 11  1  0
 11 12  1  0
 12 13  1  0
 12 14  1  0
 14 15  1  0
 15 16  1  0
 16 17  1  0
 17 18  2  0
 17 19  1  0
 19 20  1  0
 20 21  1  0
 21 22  1  0
 21 23  1  0
 23 24  1  0
 24 25  1  0
 25 26  3  0
  8  3  1  0
 13  9  1  0
 24 19  1  0
 14 11  1  0
  4 27  1  0
  5 28  1  0
  6 29  1  0
 10 30  1  0
 10 31  1  0
 11 32  1  1
 12 33  1  1
 13 34  1  0
 13 35  1  0
 14 36  1  6
 15 37  1  0
 16 38  1  0
 16 39  1  0
 20 40  1  0
 20 41  1  0
 21 42  1  1
 23 43  1  0
 23 44  1  0
 24 45  1  1
M  END
$$$$
