
     RDKit          3D

 45 47  0  0  0  0  0  0  0  0999 V2000
   -0.9608   -0.2075    1.3210 C   0  0  0  0  0  0  0  0  0  0  0  0
   -1.1611   -0.5711   -0.0993 N   0  0  0  0  0  0  0  0  0  0  0  0
   -2.4814   -1.2070   -0.3026 C   0  0  0  0  0  0  0  0  0  0  0  0
   -3.5790   -0.1785   -0.2238 C   0  0  0  0  0  0  0  0  0  0  0  0
   -3.7093    0.7867   -1.2351 C   0  0  0  0  0  0  0  0  0  0  0  0
   -4.7126    1.7576   -1.1588 C   0  0  0  0  0  0  0  0  0  0  0  0
   -5.5918    1.7747   -0.0688 C   0  0  0  0  0  0  0  0  0  0  0  0
   -6.6236    2.7752    0.0102 C   0  0  0  0  0  0  0  0  0  0  0  0
   -7.4532    3.5795    0.0737 N   0  0  0  0  0  0  0  0  0  0  0  0
   -5.4626    0.8178    0.9456 C   0  0  0  0  0  0  0  0  0  0  0  0
   -4.4596   -0.1537    0.8701 C   0  0  0  0  0  0  0  0  0  0  0  0
   -0.0593   -1.3858   -0.6863 C   0  0  2  0  0  0  0  0  0  0  0  0
    0.3301   -2.6116    0.1438 C   0  0  0  0  0  0  0  0  0  0  0  0
    1.5085   -2.2418    0.9195 N   0  0  0  0  0  0  0  0  0  0  0  0
    2.2472   -1.2794    0.0972 C   0  0  2  0  0  0  0  0  0  0  0  0
    2.9872   -0.2891    0.9689 C   0  0  0  0  0  0  0  0  0  0  0  0
    2.6871   -0.2023    2.1918 O   0  0  0  0  0  0  0  0  0  0  0  0
    3.9949    0.5883    0.4257 N   0  0  0  0  0  0  0  0  0  0  0  0
    4.4609    0.5118   -0.9531 C   0  0  0  0  0  0  0  0  0  0  0  0
    5.6795    1.4098   -1.0883 C   0  0  0  0  0  0  0  0  0  0  0  0
    5.5482    2.7314    0.1460 S   0  0  0  0  0  0  0  0  0  0  0  0
    4.5776    1.6508    1.2339 C   0  0  0  0  0  0  0  0  0  0  0  0
    1.2334   -0.5820   -0.8181 C   0  0  0  0  0  0  0  0  0  0  0  0
    0.0464    0.2207    1.4903 H   0  0  0  0  0  0  0  0  0  0  0  0
   -1.6872    0.5790    1.6143 H   0  0  0  0  0  0  0  0  0  0  0  0
   -1.0990   -1.0792    1.9952 H   0  0  0  0  0  0  0  0  0  0  0  0
   -2.6484   -2.0245    0.4343 H   0  0  0  0  0  0  0  0  0  0  0  0
   -2.5459   -1.6749   -1.3098 H   0  0  0  0  0  0  0  0  0  0  0  0
   -3.0319    0.7871   -2.0803 H   0  0  0  0  0  0  0  0  0  0  0  0
   -4.8013    2.4950   -1.9475 H   0  0  0  0  0  0  0  0  0  0  0  0
   -6.1349    0.8242    1.7952 H   0  0  0  0  0  0  0  0  0  0  0  0
   -4.3677   -0.8823    1.6660 H   0  0  0  0  0  0  0  0  0  0  0  0
   -0.3494   -1.7204   -1.7089 H   0  0  0  0  0  0  0  0  0  0  0  0
    0.5817   -3.4532   -0.5424 H   0  0  0  0  0  0  0  0  0  0  0  0
   -0.4806   -2.9586    0.8159 H   0  0  0  0  0  0  0  0  0  0  0  0
    2.0979   -3.0935    1.0759 H   0  0  0  0  0  0  0  0  0  0  0  0
    2.9802   -1.8350   -0.5306 H   0  0  0  0  0  0  0  0  0  0  0  0
    3.6564    0.8611   -1.6349 H   0  0  0  0  0  0  0  0  0  0  0  0
    4.7468   -0.5292   -1.2140 H   0  0  0  0  0  0  0  0  0  0  0  0
    6.6027    0.8270   -0.8814 H   0  0  0  0  0  0  0  0  0  0  0  0
    5.7422    1.8413   -2.1095 H   0  0  0  0  0  0  0  0  0  0  0  0
    5.2363    1.2130    2.0133 H   0  0  0  0  0  0  0  0  0  0  0  0
    3.7764    2.2535    1.7117 H   0  0  0  0  0  0  0  0  0  0  0  0
    1.0817    0.4887   -0.5560 H   0  0  0  0  0  0  0  0  0  0  0  0
    1.5977   -0.6137   -1.8690 H   0  0  0  0  0  0  0  0  0  0  0  0
  1  2  1  0
  2  3  1  0
  3  4  1  0
  4  5  2  0
  5  6  1  0
  6  7  2  0
  7  8  1  0
  8  9  3  0
  7 10  1  0
 10 11  2  0
  2 12  1  0
 12 13  1  0
 13 14  1  0
 14 15  1  0
 15 16  1  0
 16 17  2  0
 16 18  1  0
 18 19  1  0
 19 20  1  0
 20 21  1  0
 21 22  1  0
 15 23  1  0
 11  4  1  0
 23 12  1  0
 22 18  1  0
  1 24  1  0
  1 25  1  0
  1 26  1  0
  3 27  1  0
  3 28  1  0
  5 29  1  0
  6 30  1  0
 10 31  1  0
 11 32  1  0
 12 33  1  6
 13 34  1  0
 13 35  1  0
 14 36  1  0
 15 37  1  6
 19 38  1  0
 19 39  1  0
 20 40  1  0
 20 41  1  0
 22 42  1  0
 22 43  1  0
 23 44  1  0
 23 45  1  0
M  END
$$$$
