
     RDKit          3D

 82 83  0  0  0  0  0  0  0  0999 V2000
    1.7753   -1.8938    2.2590 N   0  0  0  0  0  0  0  0  0  0  0  0
    2.7154   -1.4020    1.7970 C   0  0  0  0  0  0  0  0  0  0  0  0
    3.9189   -0.7807    1.2176 C   0  0  2  0  0  0  0  0  0  0  0  0
    4.0812    0.6583    1.7070 C   0  0  0  0  0  0  0  0  0  0  0  0
    4.6038    1.4322    0.4993 C   0  0  2  0  0  0  0  0  0  0  0  0
    4.0720    2.7917    0.4785 N   0  0  0  0  0  0  0  0  0  0  0  0
    4.8230    3.7674    0.4902 N   0  0  0  0  0  0  0  0  0  0  0  0
    5.5729    4.7422    0.5019 N   0  0  0  0  0  0  0  0  0  0  0  0
    4.1397    0.6448   -0.7230 C   0  0  0  0  0  0  0  0  0  0  0  0
    3.8327   -0.6939   -0.2373 N   0  0  0  0  0  0  0  0  0  0  0  0
    3.6453   -1.8453   -1.0897 C   0  0  0  0  0  0  0  0  0  0  0  0
    3.4868   -2.9811   -0.5628 O   0  0  0  0  0  0  0  0  0  0  0  0
    3.5984   -1.7269   -2.6032 C   0  0  1  0  0  0  0  0  0  0  0  0
    3.8622   -3.0282   -3.2286 N   0  0  0  0  0  0  0  0  0  0  0  0
    2.2739   -1.1071   -3.1200 C   0  0  0  0  0  0  0  0  0  0  0  0
    1.0419   -1.6244   -2.4151 C   0  0  0  0  0  0  0  0  0  0  0  0
    0.7368   -2.8425   -2.5277 O   0  0  0  0  0  0  0  0  0  0  0  0
    0.2222   -0.7621   -1.6030 N   0  0  0  0  0  0  0  0  0  0  0  0
    0.0399    0.6562   -1.9416 C   0  0  0  0  0  0  0  0  0  0  0  0
   -1.3131    1.1558   -1.4213 C   0  0  0  0  0  0  0  0  0  0  0  0
   -1.4676    0.9451    0.0388 N   0  0  0  0  0  0  0  0  0  0  0  0
   -2.8755    1.1045    0.5008 C   0  0  0  0  0  0  0  0  0  0  0  0
   -3.7416   -0.1169    0.1748 C   0  0  0  0  0  0  0  0  0  0  0  0
   -3.8303   -1.2234    1.0465 C   0  0  0  0  0  0  0  0  0  0  0  0
   -4.6136   -2.3314    0.7119 C   0  0  0  0  0  0  0  0  0  0  0  0
   -5.3267   -2.3498   -0.4880 C   0  0  0  0  0  0  0  0  0  0  0  0
   -6.0865   -3.4257   -0.8094 F   0  0  0  0  0  0  0  0  0  0  0  0
   -5.2664   -1.2541   -1.3508 C   0  0  0  0  0  0  0  0  0  0  0  0
   -4.4853   -0.1431   -1.0208 C   0  0  0  0  0  0  0  0  0  0  0  0
   -2.9640    1.5305    1.9663 C   0  0  0  0  0  0  0  0  0  0  0  0
   -4.2209    1.5759    2.6048 C   0  0  0  0  0  0  0  0  0  0  0  0
   -4.3351    2.0098    3.9284 C   0  0  0  0  0  0  0  0  0  0  0  0
   -3.2038    2.4352    4.6261 C   0  0  0  0  0  0  0  0  0  0  0  0
   -3.3172    2.8593    5.9089 F   0  0  0  0  0  0  0  0  0  0  0  0
   -1.9587    2.4422    3.9954 C   0  0  0  0  0  0  0  0  0  0  0  0
   -1.8384    2.0093    2.6715 C   0  0  0  0  0  0  0  0  0  0  0  0
   -0.7369   -0.2268    0.5860 C   0  0  0  0  0  0  0  0  0  0  0  0
   -0.5079   -1.3220   -0.4613 C   0  0  0  0  0  0  0  0  0  0  0  0
    0.8440    0.1973   -1.4857 O   0  0  0  0  0  0  0  0  0  0  0  0
    0.4885    0.0238   -0.2892 C   0  0  0  0  0  0  0  0  0  0  0  0
    1.4398   -0.2830    0.6791 O   0  0  0  0  0  0  0  0  0  0  0  0
   -0.9586    0.0887    0.0779 C   0  0  0  0  0  0  0  0  0  0  0  0
   -1.5555   -1.1278   -0.1936 F   0  0  0  0  0  0  0  0  0  0  0  0
   -1.5880    1.0795   -0.6537 F   0  0  0  0  0  0  0  0  0  0  0  0
   -1.0924    0.3705    1.4252 F   0  0  0  0  0  0  0  0  0  0  0  0
    0.8398    0.1185   -1.4963 O   0  0  0  0  0  0  0  0  0  0  0  0
    0.4872   -0.0001   -0.2923 C   0  0  0  0  0  0  0  0  0  0  0  0
    1.4360   -0.2949    0.6821 O   0  0  0  0  0  0  0  0  0  0  0  0
   -0.9554    0.1168    0.0793 C   0  0  0  0  0  0  0  0  0  0  0  0
   -1.5860   -1.0924   -0.1445 F   0  0  0  0  0  0  0  0  0  0  0  0
   -1.5626    1.0967   -0.6851 F   0  0  0  0  0  0  0  0  0  0  0  0
   -1.0738    0.4511    1.4160 F   0  0  0  0  0  0  0  0  0  0  0  0
    4.8119   -1.3813    1.4966 H   0  0  0  0  0  0  0  0  0  0  0  0
    4.7939    0.7155    2.5585 H   0  0  0  0  0  0  0  0  0  0  0  0
    3.1021    1.0837    2.0290 H   0  0  0  0  0  0  0  0  0  0  0  0
    5.7187    1.4423    0.5293 H   0  0  0  0  0  0  0  0  0  0  0  0
    4.9556    0.6178   -1.4757 H   0  0  0  0  0  0  0  0  0  0  0  0
    3.2287    1.0959   -1.1660 H   0  0  0  0  0  0  0  0  0  0  0  0
    4.4245   -1.0541   -2.9167 H   0  0  0  0  0  0  0  0  0  0  0  0
    3.0487   -3.6679   -3.0852 H   0  0  0  0  0  0  0  0  0  0  0  0
    3.9729   -2.8918   -4.2599 H   0  0  0  0  0  0  0  0  0  0  0  0
    2.1669   -1.3006   -4.2089 H   0  0  0  0  0  0  0  0  0  0  0  0
    2.3433   -0.0070   -3.0164 H   0  0  0  0  0  0  0  0  0  0  0  0
    0.8573    1.2559   -1.4896 H   0  0  0  0  0  0  0  0  0  0  0  0
    0.0595    0.7916   -3.0452 H   0  0  0  0  0  0  0  0  0  0  0  0
   -2.1036    0.6195   -1.9852 H   0  0  0  0  0  0  0  0  0  0  0  0
   -1.4060    2.2401   -1.6453 H   0  0  0  0  0  0  0  0  0  0  0  0
   -3.3122    1.9735   -0.0431 H   0  0  0  0  0  0  0  0  0  0  0  0
   -3.3153   -1.2267    1.9971 H   0  0  0  0  0  0  0  0  0  0  0  0
   -4.6720   -3.1742    1.3887 H   0  0  0  0  0  0  0  0  0  0  0  0
   -5.8276   -1.2628   -2.2764 H   0  0  0  0  0  0  0  0  0  0  0  0
   -4.4640    0.6993   -1.7005 H   0  0  0  0  0  0  0  0  0  0  0  0
   -5.1172    1.2743    2.0774 H   0  0  0  0  0  0  0  0  0  0  0  0
   -5.3047    2.0238    4.4094 H   0  0  0  0  0  0  0  0  0  0  0  0
   -1.0848    2.7936    4.5288 H   0  0  0  0  0  0  0  0  0  0  0  0
   -0.8637    2.0611    2.2065 H   0  0  0  0  0  0  0  0  0  0  0  0
    0.2577    0.1273    0.9324 H   0  0  0  0  0  0  0  0  0  0  0  0
   -1.2252   -0.6496    1.4839 H   0  0  0  0  0  0  0  0  0  0  0  0
    0.0810   -2.1416    0.0046 H   0  0  0  0  0  0  0  0  0  0  0  0
   -1.4790   -1.7367   -0.8061 H   0  0  0  0  0  0  0  0  0  0  0  0
    2.4220   -0.3490    0.4400 H   0  0  0  0  0  0  0  0  0  0  0  0
    2.4147   -0.3957    0.4407 H   0  0  0  0  0  0  0  0  0  0  0  0
  1  2  3  0
  2  3  1  0
  3  4  1  0
  4  5  1  0
  5  6  1  0
  6  7  2  0
  7  8  2  0
  5  9  1  0
  9 10  1  0
 10 11  1  0
 11 12  2  0
 11 13  1  0
 13 14  1  0
 13 15  1  0
 15 16  1  0
 16 17  2  0
 16 18  1  0
 18 19  1  0
 19 20  1  0
 20 21  1  0
 21 22  1  0
 22 23  1  0
 23 24  2  0
 24 25  1  0
 25 26  2  0
 26 27  1  0
 26 28  1  0
 28 29  2  0
 22 30  1  0
 30 31  2  0
 31 32  1  0
 32 33  2  0
 33 34  1  0
 33 35  1  0
 35 36  2  0
 21 37  1  0
 37 38  1  0
 39 40  2  0
 40 41  1  0
 40 42  1  0
 42 43  1  0
 42 44  1  0
 42 45  1  0
 46 47  2  0
 47 48  1  0
 47 49  1  0
 49 50  1  0
 49 51  1  0
 49 52  1  0
 10  3  1  0
 38 18  1  0
 29 23  1  0
 36 30  1  0
  3 53  1  6
  4 54  1  0
  4 55  1  0
  5 56  1  1
  9 57  1  0
  9 58  1  0
 13 59  1  6
 14 60  1  0
 14 61  1  0
 15 62  1  0
 15 63  1  0
 19 64  1  0
 19 65  1  0
 20 66  1  0
 20 67  1  0
 22 68  1  0
 24 69  1  0
 25 70  1  0
 28 71  1  0
 29 72  1  0
 31 73  1  0
 32 74  1  0
 35 75  1  0
 36 76  1  0
 37 77  1  0
 37 78  1  0
 38 79  1  0
 38 80  1  0
 41 81  1  0
 48 82  1  0
M  CHG  2   7   1   8  -1
M  END
$$$$
