
     RDKit          3D

 55 57  0  0  0  0  0  0  0  0999 V2000
   -3.1838   -3.6266   -1.5510 N   0  0  0  0  0  0  0  0  0  0  0  0
   -3.3525   -2.6174   -0.5007 C   0  0  1  0  0  0  0  0  0  0  0  0
   -1.9986   -2.3348    0.1959 C   0  0  0  0  0  0  0  0  0  0  0  0
   -1.0689   -1.4316   -0.5825 C   0  0  0  0  0  0  0  0  0  0  0  0
   -0.8474   -1.6852   -1.7972 O   0  0  0  0  0  0  0  0  0  0  0  0
   -0.3970   -0.3161    0.0402 N   0  0  0  0  0  0  0  0  0  0  0  0
   -0.4718    0.0044    1.4597 C   0  0  0  0  0  0  0  0  0  0  0  0
    0.3490    1.2735    1.6430 C   0  0  0  0  0  0  0  0  0  0  0  0
    0.4881    1.8701    0.2478 C   0  0  0  0  0  0  0  0  0  0  0  0
    0.3447    0.6874   -0.7147 C   0  0  1  0  0  0  0  0  0  0  0  0
    1.7150    0.1281   -1.1383 C   0  0  0  0  0  0  0  0  0  0  0  0
    2.4404    1.1174   -1.9403 N   0  0  0  0  0  0  0  0  0  0  0  0
    4.0815    0.5961   -2.1745 S   0  0  0  0  0  0  0  0  0  0  0  0
    4.7742    1.5411   -3.1149 O   0  0  0  0  0  0  0  0  0  0  0  0
    4.0868   -0.7841   -2.7725 O   0  0  0  0  0  0  0  0  0  0  0  0
    4.9336    0.5947   -0.6328 C   0  0  0  0  0  0  0  0  0  0  0  0
    5.8175   -0.4444   -0.3062 C   0  0  0  0  0  0  0  0  0  0  0  0
    6.4789   -0.4412    0.9262 C   0  0  0  0  0  0  0  0  0  0  0  0
    6.2620    0.5985    1.8352 C   0  0  0  0  0  0  0  0  0  0  0  0
    5.3855    1.6382    1.5117 C   0  0  0  0  0  0  0  0  0  0  0  0
    4.7244    1.6387    0.2797 C   0  0  0  0  0  0  0  0  0  0  0  0
   -4.0659   -1.3568   -1.0556 C   0  0  0  0  0  0  0  0  0  0  0  0
   -4.2462   -0.2717   -0.0196 C   0  0  0  0  0  0  0  0  0  0  0  0
   -3.5241    0.9305   -0.1275 C   0  0  0  0  0  0  0  0  0  0  0  0
   -3.6738    1.9346    0.8329 C   0  0  0  0  0  0  0  0  0  0  0  0
   -4.5501    1.7524    1.9046 C   0  0  0  0  0  0  0  0  0  0  0  0
   -5.2851    0.5692    2.0131 C   0  0  0  0  0  0  0  0  0  0  0  0
   -5.1407   -0.4398    1.0548 C   0  0  0  0  0  0  0  0  0  0  0  0
   -5.8796   -1.5721    1.1703 F   0  0  0  0  0  0  0  0  0  0  0  0
   -4.1295   -3.9780   -1.8281 H   0  0  0  0  0  0  0  0  0  0  0  0
   -2.7639   -3.1905   -2.4028 H   0  0  0  0  0  0  0  0  0  0  0  0
   -4.0126   -3.0643    0.2759 H   0  0  0  0  0  0  0  0  0  0  0  0
   -1.4750   -3.2969    0.3831 H   0  0  0  0  0  0  0  0  0  0  0  0
   -2.2182   -1.9063    1.1934 H   0  0  0  0  0  0  0  0  0  0  0  0
   -1.5242    0.1982    1.7544 H   0  0  0  0  0  0  0  0  0  0  0  0
   -0.0529   -0.8270    2.0666 H   0  0  0  0  0  0  0  0  0  0  0  0
   -0.1471    1.9839    2.3395 H   0  0  0  0  0  0  0  0  0  0  0  0
    1.3566    1.0146    2.0370 H   0  0  0  0  0  0  0  0  0  0  0  0
   -0.3476    2.5838    0.0747 H   0  0  0  0  0  0  0  0  0  0  0  0
    1.4486    2.4182    0.1370 H   0  0  0  0  0  0  0  0  0  0  0  0
   -0.2365    0.9984   -1.6116 H   0  0  0  0  0  0  0  0  0  0  0  0
    1.5757   -0.8024   -1.7306 H   0  0  0  0  0  0  0  0  0  0  0  0
    2.2920   -0.1321   -0.2232 H   0  0  0  0  0  0  0  0  0  0  0  0
    1.9945    1.1611   -2.8857 H   0  0  0  0  0  0  0  0  0  0  0  0
    5.9947   -1.2552   -1.0008 H   0  0  0  0  0  0  0  0  0  0  0  0
    7.1592   -1.2450    1.1767 H   0  0  0  0  0  0  0  0  0  0  0  0
    6.7737    0.5991    2.7890 H   0  0  0  0  0  0  0  0  0  0  0  0
    5.2187    2.4437    2.2151 H   0  0  0  0  0  0  0  0  0  0  0  0
    4.0488    2.4493    0.0383 H   0  0  0  0  0  0  0  0  0  0  0  0
   -5.0686   -1.6492   -1.4361 H   0  0  0  0  0  0  0  0  0  0  0  0
   -3.5057   -0.9624   -1.9313 H   0  0  0  0  0  0  0  0  0  0  0  0
   -2.8375    1.0887   -0.9496 H   0  0  0  0  0  0  0  0  0  0  0  0
   -3.1058    2.8520    0.7483 H   0  0  0  0  0  0  0  0  0  0  0  0
   -4.6634    2.5300    2.6488 H   0  0  0  0  0  0  0  0  0  0  0  0
   -5.9702    0.4354    2.8404 H   0  0  0  0  0  0  0  0  0  0  0  0
  1  2  1  0
  2  3  1  0
  3  4  1  0
  4  5  2  0
  4  6  1  0
  6  7  1  0
  7  8  1  0
  8  9  1  0
  9 10  1  0
 10 11  1  0
 11 12  1  0
 12 13  1  0
 13 14  2  0
 13 15  2  0
 13 16  1  0
 16 17  2  0
 17 18  1  0
 18 19  2  0
 19 20  1  0
 20 21  2  0
  2 22  1  0
 22 23  1  0
 23 24  2  0
 24 25  1  0
 25 26  2  0
 26 27  1  0
 27 28  2  0
 28 29  1  0
 10  6  1  0
 21 16  1  0
 28 23  1  0
  1 30  1  0
  1 31  1  0
  2 32  1  1
  3 33  1  0
  3 34  1  0
  7 35  1  0
  7 36  1  0
  8 37  1  0
  8 38  1  0
  9 39  1  0
  9 40  1  0
 10 41  1  6
 11 42  1  0
 11 43  1  0
 12 44  1  0
 17 45  1  0
 18 46  1  0
 19 47  1  0
 20 48  1  0
 21 49  1  0
 22 50  1  0
 22 51  1  0
 24 52  1  0
 25 53  1  0
 26 54  1  0
 27 55  1  0
M  END
$$$$
