
     RDKit          3D

 64 67  0  0  0  0  0  0  0  0999 V2000
   -1.7767   -4.6023   -0.4709 C   0  0  0  0  0  0  0  0  0  0  0  0
   -1.7368   -3.3327    0.2538 C   0  0  0  0  0  0  0  0  0  0  0  0
   -1.7054   -2.2848    0.8480 C   0  0  0  0  0  0  0  0  0  0  0  0
   -1.6715   -1.0057    1.5628 C   0  0  0  0  0  0  0  0  0  0  0  0
   -1.5259    0.0973    0.6088 N   0  0  0  0  0  0  0  0  0  0  0  0
   -2.5258    0.8747    0.1232 C   0  0  0  0  0  0  0  0  0  0  0  0
   -3.9147    0.6817    0.4292 N   0  0  0  0  0  0  0  0  0  0  0  0
   -4.6483    1.7302    1.1480 C   0  0  0  0  0  0  0  0  0  0  0  0
   -5.9695    1.1900    1.7039 C   0  0  0  0  0  0  0  0  0  0  0  0
   -6.8316    0.5230    0.6148 C   0  0  0  0  0  0  0  0  0  0  0  0
   -6.0131   -0.2014   -0.4862 C   0  0  2  0  0  0  0  0  0  0  0  0
   -6.7057   -1.4166   -0.9177 N   0  0  0  0  0  0  0  0  0  0  0  0
   -4.5948   -0.5437   -0.0058 C   0  0  0  0  0  0  0  0  0  0  0  0
   -2.0352    1.8251   -0.7622 C   0  0  0  0  0  0  0  0  0  0  0  0
   -2.8301    2.7593   -1.5175 C   0  0  0  0  0  0  0  0  0  0  0  0
   -3.4720    3.5081   -2.1230 N   0  0  0  0  0  0  0  0  0  0  0  0
   -0.6644    1.5965   -0.8248 C   0  0  0  0  0  0  0  0  0  0  0  0
   -0.3952    0.5436    0.0075 C   0  0  0  0  0  0  0  0  0  0  0  0
    0.9074    0.0616    0.1129 C   0  0  0  0  0  0  0  0  0  0  0  0
    1.1718   -0.9122    0.8698 O   0  0  0  0  0  0  0  0  0  0  0  0
    1.8969    0.6648   -0.6274 N   0  0  0  0  0  0  0  0  0  0  0  0
    3.2901    0.1821   -0.5135 C   0  0  0  0  0  0  0  0  0  0  0  0
    4.0164    0.8569    0.6253 C   0  0  0  0  0  0  0  0  0  0  0  0
    3.4633    1.8255    1.2164 O   0  0  0  0  0  0  0  0  0  0  0  0
    5.3733    0.4201    1.0549 C   0  0  0  0  0  0  0  0  0  0  0  0
    5.9562    0.9780    2.2083 C   0  0  0  0  0  0  0  0  0  0  0  0
    7.2274    0.5797    2.6259 C   0  0  0  0  0  0  0  0  0  0  0  0
    7.9364   -0.3779    1.9007 C   0  0  0  0  0  0  0  0  0  0  0  0
    7.3843   -0.9472    0.7495 C   0  0  0  0  0  0  0  0  0  0  0  0
    8.1399   -1.9042    0.0551 O   0  0  0  0  0  0  0  0  0  0  0  0
    7.7086   -2.5684   -1.1283 C   0  0  0  0  0  0  0  0  0  0  0  0
    6.1010   -0.5450    0.3279 C   0  0  0  0  0  0  0  0  0  0  0  0
    1.6040    1.7482   -1.4370 C   0  0  0  0  0  0  0  0  0  0  0  0
    2.5346    2.3125   -2.0793 O   0  0  0  0  0  0  0  0  0  0  0  0
    0.3126    2.2212   -1.5491 N   0  0  0  0  0  0  0  0  0  0  0  0
   -0.0086    3.3639   -2.4194 C   0  0  0  0  0  0  0  0  0  0  0  0
   -1.7888   -5.4420    0.2542 H   0  0  0  0  0  0  0  0  0  0  0  0
   -0.8804   -4.6862   -1.1193 H   0  0  0  0  0  0  0  0  0  0  0  0
   -2.6914   -4.6413   -1.0975 H   0  0  0  0  0  0  0  0  0  0  0  0
   -0.8375   -1.0019    2.2934 H   0  0  0  0  0  0  0  0  0  0  0  0
   -2.6074   -0.8913    2.1483 H   0  0  0  0  0  0  0  0  0  0  0  0
   -4.8536    2.5791    0.4619 H   0  0  0  0  0  0  0  0  0  0  0  0
   -4.0322    2.1027    1.9953 H   0  0  0  0  0  0  0  0  0  0  0  0
   -5.7403    0.4418    2.4946 H   0  0  0  0  0  0  0  0  0  0  0  0
   -6.5406    2.0161    2.1798 H   0  0  0  0  0  0  0  0  0  0  0  0
   -7.5202   -0.1927    1.1160 H   0  0  0  0  0  0  0  0  0  0  0  0
   -7.4670    1.2976    0.1320 H   0  0  0  0  0  0  0  0  0  0  0  0
   -5.9144    0.4864   -1.3584 H   0  0  0  0  0  0  0  0  0  0  0  0
   -6.1781   -1.8302   -1.7209 H   0  0  0  0  0  0  0  0  0  0  0  0
   -7.6401   -1.1416   -1.2997 H   0  0  0  0  0  0  0  0  0  0  0  0
   -4.6449   -1.2635    0.8394 H   0  0  0  0  0  0  0  0  0  0  0  0
   -4.0294   -1.0197   -0.8377 H   0  0  0  0  0  0  0  0  0  0  0  0
    3.3024   -0.9189   -0.3589 H   0  0  0  0  0  0  0  0  0  0  0  0
    3.8472    0.3602   -1.4585 H   0  0  0  0  0  0  0  0  0  0  0  0
    5.4283    1.7210    2.7929 H   0  0  0  0  0  0  0  0  0  0  0  0
    7.6641    1.0146    3.5157 H   0  0  0  0  0  0  0  0  0  0  0  0
    8.9214   -0.6793    2.2340 H   0  0  0  0  0  0  0  0  0  0  0  0
    8.5009   -3.2707   -1.4590 H   0  0  0  0  0  0  0  0  0  0  0  0
    6.7826   -3.1471   -0.9258 H   0  0  0  0  0  0  0  0  0  0  0  0
    7.5290   -1.8291   -1.9373 H   0  0  0  0  0  0  0  0  0  0  0  0
    5.6780   -0.9783   -0.5659 H   0  0  0  0  0  0  0  0  0  0  0  0
    0.8921    3.8140   -2.8850 H   0  0  0  0  0  0  0  0  0  0  0  0
   -0.4997    4.1642   -1.8265 H   0  0  0  0  0  0  0  0  0  0  0  0
   -0.6790    3.0338   -3.2407 H   0  0  0  0  0  0  0  0  0  0  0  0
  1  2  1  0
  2  3  3  0
  3  4  1  0
  4  5  1  0
  5  6  1  0
  6  7  1  0
  7  8  1  0
  8  9  1  0
  9 10  1  0
 10 11  1  0
 11 12  1  0
 11 13  1  0
  6 14  2  0
 14 15  1  0
 15 16  3  0
 14 17  1  0
 17 18  2  0
 18 19  1  0
 19 20  2  0
 19 21  1  0
 21 22  1  0
 22 23  1  0
 23 24  2  0
 23 25  1  0
 25 26  2  0
 26 27  1  0
 27 28  2  0
 28 29  1  0
 29 30  1  0
 30 31  1  0
 29 32  2  0
 21 33  1  0
 33 34  2  0
 33 35  1  0
 35 36  1  0
 18  5  1  0
 32 25  1  0
 13  7  1  0
 35 17  1  0
  1 37  1  0
  1 38  1  0
  1 39  1  0
  4 40  1  0
  4 41  1  0
  8 42  1  0
  8 43  1  0
  9 44  1  0
  9 45  1  0
 10 46  1  0
 10 47  1  0
 11 48  1  6
 12 49  1  0
 12 50  1  0
 13 51  1  0
 13 52  1  0
 22 53  1  0
 22 54  1  0
 26 55  1  0
 27 56  1  0
 28 57  1  0
 31 58  1  0
 31 59  1  0
 31 60  1  0
 32 61  1  0
 36 62  1  0
 36 63  1  0
 36 64  1  0
M  END
$$$$
