
     RDKit          3D

 38 40  0  0  0  0  0  0  0  0999 V2000
    3.4084   -2.3147   -1.6462 O   0  0  0  0  0  0  0  0  0  0  0  0
    2.7960   -1.4321   -0.9847 C   0  0  0  0  0  0  0  0  0  0  0  0
    1.4602   -1.8100   -0.3835 C   0  0  2  0  0  0  0  0  0  0  0  0
    0.2893   -1.2883   -1.2029 C   0  0  0  0  0  0  0  0  0  0  0  0
   -0.8105   -1.1142   -0.1720 C   0  0  2  0  0  0  0  0  0  0  0  0
   -1.7343   -0.0262   -0.5240 N   0  0  0  0  0  0  0  0  0  0  0  0
   -2.9243    0.2953    0.2234 C   0  0  0  0  0  0  0  0  0  0  0  0
   -3.4174   -0.5453    1.2422 C   0  0  0  0  0  0  0  0  0  0  0  0
   -4.5765   -0.1996    1.9443 C   0  0  0  0  0  0  0  0  0  0  0  0
   -5.2573    0.9805    1.6379 C   0  0  0  0  0  0  0  0  0  0  0  0
   -4.7821    1.8171    0.6261 C   0  0  0  0  0  0  0  0  0  0  0  0
   -3.6240    1.4763   -0.0788 C   0  0  0  0  0  0  0  0  0  0  0  0
   -0.0604   -0.8240    1.1275 C   0  0  0  0  0  0  0  0  0  0  0  0
    1.3172   -1.3048    0.9839 N   0  0  0  0  0  0  0  0  0  0  0  0
    3.3715   -0.1085   -0.8796 N   0  0  0  0  0  0  0  0  0  0  0  0
    2.7880    0.9846   -0.1096 C   0  0  0  0  0  0  0  0  0  0  0  0
    3.5093    2.2650   -0.4915 C   0  0  0  0  0  0  0  0  0  0  0  0
    5.2013    1.8306   -0.9704 S   0  0  0  0  0  0  0  0  0  0  0  0
    4.6443    0.1937   -1.5235 C   0  0  0  0  0  0  0  0  0  0  0  0
    1.3845   -2.9240   -0.3642 H   0  0  0  0  0  0  0  0  0  0  0  0
   -0.0088   -2.0140   -1.9912 H   0  0  0  0  0  0  0  0  0  0  0  0
    0.5452   -0.3216   -1.6880 H   0  0  0  0  0  0  0  0  0  0  0  0
   -1.3645   -2.0756   -0.0888 H   0  0  0  0  0  0  0  0  0  0  0  0
   -1.5219    0.5606   -1.3632 H   0  0  0  0  0  0  0  0  0  0  0  0
   -2.9233   -1.4714    1.4963 H   0  0  0  0  0  0  0  0  0  0  0  0
   -4.9490   -0.8499    2.7253 H   0  0  0  0  0  0  0  0  0  0  0  0
   -6.1544    1.2451    2.1827 H   0  0  0  0  0  0  0  0  0  0  0  0
   -5.3113    2.7306    0.3874 H   0  0  0  0  0  0  0  0  0  0  0  0
   -3.2681    2.1369   -0.8595 H   0  0  0  0  0  0  0  0  0  0  0  0
   -0.5640   -1.3170    1.9885 H   0  0  0  0  0  0  0  0  0  0  0  0
   -0.0314    0.2695    1.3248 H   0  0  0  0  0  0  0  0  0  0  0  0
    1.4788   -2.0911    1.6572 H   0  0  0  0  0  0  0  0  0  0  0  0
    1.7089    1.1023   -0.3324 H   0  0  0  0  0  0  0  0  0  0  0  0
    2.9284    0.7874    0.9748 H   0  0  0  0  0  0  0  0  0  0  0  0
    3.0065    2.7362   -1.3632 H   0  0  0  0  0  0  0  0  0  0  0  0
    3.5199    2.9822    0.3562 H   0  0  0  0  0  0  0  0  0  0  0  0
    5.4095   -0.5577   -1.2348 H   0  0  0  0  0  0  0  0  0  0  0  0
    4.5164    0.1962   -2.6265 H   0  0  0  0  0  0  0  0  0  0  0  0
  1  2  2  0
  2  3  1  0
  3  4  1  0
  4  5  1  0
  5  6  1  0
  6  7  1  0
  7  8  2  0
  8  9  1  0
  9 10  2  0
 10 11  1  0
 11 12  2  0
  5 13  1  0
 13 14  1  0
  2 15  1  0
 15 16  1  0
 16 17  1  0
 17 18  1  0
 18 19  1  0
 14  3  1  0
 19 15  1  0
 12  7  1  0
  3 20  1  1
  4 21  1  0
  4 22  1  0
  5 23  1  1
  6 24  1  0
  8 25  1  0
  9 26  1  0
 10 27  1  0
 11 28  1  0
 12 29  1  0
 13 30  1  0
 13 31  1  0
 14 32  1  0
 16 33  1  0
 16 34  1  0
 17 35  1  0
 17 36  1  0
 19 37  1  0
 19 38  1  0
M  END
$$$$
