
     RDKit          3D

 62 63  0  0  0  0  0  0  0  0999 V2000
   -0.7945    2.7117   -2.2783 C   0  0  0  0  0  0  0  0  0  0  0  0
   -0.8727    3.4212   -0.9957 N   0  0  0  0  0  0  0  0  0  0  0  0
   -0.7915    4.8856   -0.9666 C   0  0  0  0  0  0  0  0  0  0  0  0
   -1.0270    2.7060    0.2525 C   0  0  0  0  0  0  0  0  0  0  0  0
   -1.1075    3.3605    1.3294 O   0  0  0  0  0  0  0  0  0  0  0  0
   -1.0373    1.1850    0.3080 C   0  0  1  0  0  0  0  0  0  0  0  0
    0.3625    0.6143    0.1344 C   0  0  0  0  0  0  0  0  0  0  0  0
    0.5547   -0.5224   -0.6689 C   0  0  0  0  0  0  0  0  0  0  0  0
    1.8280   -1.0741   -0.8291 C   0  0  0  0  0  0  0  0  0  0  0  0
    2.9395   -0.5054   -0.1839 C   0  0  0  0  0  0  0  0  0  0  0  0
    4.2930   -1.0930   -0.3532 C   0  0  0  0  0  0  0  0  0  0  0  0
    4.7193   -1.5569   -1.6122 C   0  0  0  0  0  0  0  0  0  0  0  0
    5.9942   -2.1095   -1.7691 C   0  0  0  0  0  0  0  0  0  0  0  0
    6.8562   -2.2064   -0.6742 C   0  0  0  0  0  0  0  0  0  0  0  0
    8.0916   -2.7430   -0.8289 F   0  0  0  0  0  0  0  0  0  0  0  0
    6.4445   -1.7501    0.5803 C   0  0  0  0  0  0  0  0  0  0  0  0
    5.1711   -1.1958    0.7425 C   0  0  0  0  0  0  0  0  0  0  0  0
    2.7477    0.6265    0.6270 C   0  0  0  0  0  0  0  0  0  0  0  0
    1.4744    1.1788    0.7865 C   0  0  0  0  0  0  0  0  0  0  0  0
   -1.7564    0.6332    1.5739 C   0  0  2  0  0  0  0  0  0  0  0  0
   -1.0117    0.9427    2.8018 N   0  0  0  0  0  0  0  0  0  0  0  0
   -2.0195   -0.8594    1.4465 C   0  0  0  0  0  0  0  0  0  0  0  0
   -1.1496   -1.6718    1.8669 O   0  0  0  0  0  0  0  0  0  0  0  0
   -3.1997   -1.3711    0.7907 N   0  0  0  0  0  0  0  0  0  0  0  0
   -4.3153   -0.5081    0.3715 C   0  0  0  0  0  0  0  0  0  0  0  0
   -5.3682   -1.3288   -0.3818 C   0  0  0  0  0  0  0  0  0  0  0  0
   -4.9120   -3.0233   -0.2041 S   0  0  0  0  0  0  0  0  0  0  0  0
   -5.8625   -3.7588    0.6981 O   0  0  0  0  0  0  0  0  0  0  0  0
   -4.7970   -3.7118   -1.5349 O   0  0  0  0  0  0  0  0  0  0  0  0
   -3.3415   -2.8042    0.5541 C   0  0  0  0  0  0  0  0  0  0  0  0
    0.8076    0.8919   -1.2291 O   0  0  0  0  0  0  0  0  0  0  0  0
    0.4744    0.1243   -0.2868 C   0  0  0  0  0  0  0  0  0  0  0  0
    1.4451   -0.6190    0.3779 O   0  0  0  0  0  0  0  0  0  0  0  0
   -0.9516    0.0576    0.1547 C   0  0  0  0  0  0  0  0  0  0  0  0
   -1.1896   -1.1393    0.8054 F   0  0  0  0  0  0  0  0  0  0  0  0
   -1.7906    0.1485   -0.9412 F   0  0  0  0  0  0  0  0  0  0  0  0
   -1.2138    1.1044    1.0179 F   0  0  0  0  0  0  0  0  0  0  0  0
   -1.7400    2.1610   -2.4643 H   0  0  0  0  0  0  0  0  0  0  0  0
   -0.6401    3.4107   -3.1265 H   0  0  0  0  0  0  0  0  0  0  0  0
    0.0587    2.0029   -2.2699 H   0  0  0  0  0  0  0  0  0  0  0  0
    0.0829    5.1995   -0.3581 H   0  0  0  0  0  0  0  0  0  0  0  0
   -0.6772    5.3155   -1.9836 H   0  0  0  0  0  0  0  0  0  0  0  0
   -1.7178    5.3030   -0.5181 H   0  0  0  0  0  0  0  0  0  0  0  0
   -1.6527    0.8526   -0.5541 H   0  0  0  0  0  0  0  0  0  0  0  0
   -0.2855   -0.9877   -1.1696 H   0  0  0  0  0  0  0  0  0  0  0  0
    1.9395   -1.9591   -1.4429 H   0  0  0  0  0  0  0  0  0  0  0  0
    4.0743   -1.4763   -2.4781 H   0  0  0  0  0  0  0  0  0  0  0  0
    6.3140   -2.4595   -2.7422 H   0  0  0  0  0  0  0  0  0  0  0  0
    7.1106   -1.8285    1.4299 H   0  0  0  0  0  0  0  0  0  0  0  0
    4.8669   -0.8646    1.7275 H   0  0  0  0  0  0  0  0  0  0  0  0
    3.5859    1.0953    1.1271 H   0  0  0  0  0  0  0  0  0  0  0  0
    1.3586    2.0473    1.4219 H   0  0  0  0  0  0  0  0  0  0  0  0
   -2.7345    1.1538    1.6533 H   0  0  0  0  0  0  0  0  0  0  0  0
   -1.6013    0.6741    3.6232 H   0  0  0  0  0  0  0  0  0  0  0  0
   -0.1373    0.3725    2.8543 H   0  0  0  0  0  0  0  0  0  0  0  0
   -3.9443    0.3008   -0.2926 H   0  0  0  0  0  0  0  0  0  0  0  0
   -4.7795   -0.0492    1.2712 H   0  0  0  0  0  0  0  0  0  0  0  0
   -5.3685   -1.0603   -1.4599 H   0  0  0  0  0  0  0  0  0  0  0  0
   -6.3818   -1.1577    0.0392 H   0  0  0  0  0  0  0  0  0  0  0  0
   -3.3053   -3.3590    1.5156 H   0  0  0  0  0  0  0  0  0  0  0  0
   -2.5383   -3.1588   -0.1262 H   0  0  0  0  0  0  0  0  0  0  0  0
    2.4183   -0.5684    0.1012 H   0  0  0  0  0  0  0  0  0  0  0  0
  1  2  1  0
  2  3  1  0
  2  4  1  0
  4  5  2  0
  4  6  1  0
  6  7  1  0
  7  8  2  0
  8  9  1  0
  9 10  2  0
 10 11  1  0
 11 12  2  0
 12 13  1  0
 13 14  2  0
 14 15  1  0
 14 16  1  0
 16 17  2  0
 10 18  1  0
 18 19  2  0
  6 20  1  0
 20 21  1  0
 20 22  1  0
 22 23  2  0
 22 24  1  0
 24 25  1  0
 25 26  1  0
 26 27  1  0
 27 28  2  0
 27 29  2  0
 27 30  1  0
 31 32  2  0
 32 33  1  0
 32 34  1  0
 34 35  1  0
 34 36  1  0
 34 37  1  0
 19  7  1  0
 30 24  1  0
 17 11  1  0
  1 38  1  0
  1 39  1  0
  1 40  1  0
  3 41  1  0
  3 42  1  0
  3 43  1  0
  6 44  1  6
  8 45  1  0
  9 46  1  0
 12 47  1  0
 13 48  1  0
 16 49  1  0
 17 50  1  0
 18 51  1  0
 19 52  1  0
 20 53  1  1
 21 54  1  0
 21 55  1  0
 25 56  1  0
 25 57  1  0
 26 58  1  0
 26 59  1  0
 30 60  1  0
 30 61  1  0
 33 62  1  0
M  END
$$$$
