
     RDKit          3D

 43 45  0  0  0  0  0  0  0  0999 V2000
   -6.3351   -1.5990   -2.6663 N   0  0  0  0  0  0  0  0  0  0  0  0
   -5.8506   -1.1917   -1.6975 C   0  0  0  0  0  0  0  0  0  0  0  0
   -5.2335   -0.6733   -0.4653 C   0  0  2  0  0  0  0  0  0  0  0  0
   -6.2029    0.2281    0.2992 C   0  0  0  0  0  0  0  0  0  0  0  0
   -5.8059    1.6569   -0.0670 C   0  0  0  0  0  0  0  0  0  0  0  0
   -5.9638    2.5086    1.0136 F   0  0  0  0  0  0  0  0  0  0  0  0
   -6.5844    2.1030   -1.1227 F   0  0  0  0  0  0  0  0  0  0  0  0
   -4.3436    1.5782   -0.4947 C   0  0  0  0  0  0  0  0  0  0  0  0
   -4.0974    0.1758   -0.7975 N   0  0  0  0  0  0  0  0  0  0  0  0
   -2.8449   -0.3463   -1.2860 C   0  0  0  0  0  0  0  0  0  0  0  0
   -2.7405   -1.5781   -1.5356 O   0  0  0  0  0  0  0  0  0  0  0  0
   -1.6485    0.5352   -1.5239 C   0  0  0  0  0  0  0  0  0  0  0  0
   -0.4967    0.0353   -0.7767 N   0  0  0  0  0  0  0  0  0  0  0  0
   -0.4092    0.1337    0.6534 C   0  0  0  0  0  0  0  0  0  0  0  0
   -1.3394    0.6825    1.3049 O   0  0  0  0  0  0  0  0  0  0  0  0
    0.7623   -0.4031    1.3694 C   0  0  0  0  0  0  0  0  0  0  0  0
    0.9135   -0.3251    2.7539 C   0  0  0  0  0  0  0  0  0  0  0  0
    2.3831   -1.0374    3.1551 S   0  0  0  0  0  0  0  0  0  0  0  0
    2.7534   -1.4289    1.5631 C   0  0  0  0  0  0  0  0  0  0  0  0
    4.0302   -2.0604    1.1126 C   0  0  0  0  0  0  0  0  0  0  0  0
    5.0371   -0.9967    0.7739 C   0  0  0  0  0  0  0  0  0  0  0  0
    5.0842   -0.4536   -0.5193 C   0  0  0  0  0  0  0  0  0  0  0  0
    5.9941    0.5620   -0.8238 C   0  0  0  0  0  0  0  0  0  0  0  0
    6.8591    1.0534    0.1601 C   0  0  0  0  0  0  0  0  0  0  0  0
    7.9886    2.3336   -0.2608 Cl  0  0  0  0  0  0  0  0  0  0  0  0
    6.8083    0.5245    1.4611 C   0  0  0  0  0  0  0  0  0  0  0  0
    7.8690    1.1219    2.7300 Cl  0  0  0  0  0  0  0  0  0  0  0  0
    5.8961   -0.4935    1.7638 C   0  0  0  0  0  0  0  0  0  0  0  0
    1.7902   -1.0097    0.7147 N   0  0  0  0  0  0  0  0  0  0  0  0
   -4.9107   -1.5223    0.1761 H   0  0  0  0  0  0  0  0  0  0  0  0
   -6.0517    0.0742    1.3908 H   0  0  0  0  0  0  0  0  0  0  0  0
   -7.2717    0.0240    0.0645 H   0  0  0  0  0  0  0  0  0  0  0  0
   -3.6787    1.9017    0.3351 H   0  0  0  0  0  0  0  0  0  0  0  0
   -4.1628    2.2073   -1.3931 H   0  0  0  0  0  0  0  0  0  0  0  0
   -1.8346    1.5916   -1.2451 H   0  0  0  0  0  0  0  0  0  0  0  0
   -1.4157    0.5190   -2.6102 H   0  0  0  0  0  0  0  0  0  0  0  0
    0.2900   -0.3937   -1.3142 H   0  0  0  0  0  0  0  0  0  0  0  0
    0.2170    0.1217    3.4510 H   0  0  0  0  0  0  0  0  0  0  0  0
    4.4219   -2.7229    1.9145 H   0  0  0  0  0  0  0  0  0  0  0  0
    3.8329   -2.7009    0.2258 H   0  0  0  0  0  0  0  0  0  0  0  0
    4.4144   -0.8148   -1.2900 H   0  0  0  0  0  0  0  0  0  0  0  0
    6.0232    0.9700   -1.8262 H   0  0  0  0  0  0  0  0  0  0  0  0
    5.8537   -0.8906    2.7709 H   0  0  0  0  0  0  0  0  0  0  0  0
  1  2  3  0
  2  3  1  0
  3  4  1  0
  4  5  1  0
  5  6  1  0
  5  7  1  0
  5  8  1  0
  8  9  1  0
  9 10  1  0
 10 11  2  0
 10 12  1  0
 12 13  1  0
 13 14  1  0
 14 15  2  0
 14 16  1  0
 16 17  2  0
 17 18  1  0
 18 19  1  0
 19 20  1  0
 20 21  1  0
 21 22  2  0
 22 23  1  0
 23 24  2  0
 24 25  1  0
 24 26  1  0
 26 27  1  0
 26 28  2  0
 19 29  2  0
  9  3  1  0
 29 16  1  0
 28 21  1  0
  3 30  1  1
  4 31  1  0
  4 32  1  0
  8 33  1  0
  8 34  1  0
 12 35  1  0
 12 36  1  0
 13 37  1  0
 17 38  1  0
 20 39  1  0
 20 40  1  0
 22 41  1  0
 23 42  1  0
 28 43  1  0
M  END
$$$$
