
     RDKit          3D

 60 61  0  0  0  0  0  0  0  0999 V2000
    0.6878    0.0000    0.0000 Cl  0  0  0  0  0  0  0  0  0  0  0  0
   -2.7447    0.5438   -0.1709 N   0  0  0  0  0  0  0  0  0  0  0  0
   -3.6947   -0.5176   -0.5223 C   0  0  1  0  0  0  0  0  0  0  0  0
   -2.9935   -1.8906   -0.6244 C   0  0  0  0  0  0  0  0  0  0  0  0
   -1.9824   -1.9139   -1.7433 C   0  0  0  0  0  0  0  0  0  0  0  0
   -2.4032   -1.8492   -2.9306 O   0  0  0  0  0  0  0  0  0  0  0  0
   -0.5607   -1.9390   -1.4960 N   0  0  0  0  0  0  0  0  0  0  0  0
   -0.0080   -2.6980   -0.3614 C   0  0  0  0  0  0  0  0  0  0  0  0
    0.4073   -1.7676    0.7888 C   0  0  0  0  0  0  0  0  0  0  0  0
    1.1230   -0.4998    0.3076 C   0  0  0  0  0  0  0  0  0  0  0  0
    2.1552   -0.8270   -0.6883 N   0  0  0  0  0  0  0  0  0  0  0  0
    3.5320   -0.9294   -0.2745 C   0  0  0  0  0  0  0  0  0  0  0  0
    4.4339   -1.1432   -1.1316 O   0  0  0  0  0  0  0  0  0  0  0  0
    3.8701   -0.8022    1.0792 O   0  0  0  0  0  0  0  0  0  0  0  0
    5.2121   -0.8336    1.5597 C   0  0  0  0  0  0  0  0  0  0  0  0
    5.9331    0.4313    1.1818 C   0  0  0  0  0  0  0  0  0  0  0  0
    5.5401    1.6562    1.7452 C   0  0  0  0  0  0  0  0  0  0  0  0
    6.1930    2.8390    1.3843 C   0  0  0  0  0  0  0  0  0  0  0  0
    7.2385    2.8071    0.4574 C   0  0  0  0  0  0  0  0  0  0  0  0
    7.6320    1.5924   -0.1112 C   0  0  0  0  0  0  0  0  0  0  0  0
    6.9818    0.4072    0.2471 C   0  0  0  0  0  0  0  0  0  0  0  0
    1.8106   -1.2033   -2.0748 C   0  0  0  0  0  0  0  0  0  0  0  0
    0.3018   -1.1562   -2.4056 C   0  0  0  0  0  0  0  0  0  0  0  0
   -4.8259   -0.5727    0.5214 C   0  0  0  0  0  0  0  0  0  0  0  0
   -5.6048    0.7195    0.5602 C   0  0  0  0  0  0  0  0  0  0  0  0
   -6.6250    0.9477   -0.3791 C   0  0  0  0  0  0  0  0  0  0  0  0
   -7.3357    2.1519   -0.3727 C   0  0  0  0  0  0  0  0  0  0  0  0
   -8.3205    2.3600   -1.2814 F   0  0  0  0  0  0  0  0  0  0  0  0
   -7.0289    3.1407    0.5667 C   0  0  0  0  0  0  0  0  0  0  0  0
   -7.7164    4.3096    0.5732 F   0  0  0  0  0  0  0  0  0  0  0  0
   -6.0090    2.9270    1.4981 C   0  0  0  0  0  0  0  0  0  0  0  0
   -5.2946    1.7244    1.4965 C   0  0  0  0  0  0  0  0  0  0  0  0
   -4.3017    1.5438    2.4041 F   0  0  0  0  0  0  0  0  0  0  0  0
   -0.6878    0.0000    0.0000 H   0  0  0  0  0  0  0  0  0  0  0  0
   -2.0748    0.6817   -0.9614 H   0  0  0  0  0  0  0  0  0  0  0  0
   -2.1934    0.2572    0.6705 H   0  0  0  0  0  0  0  0  0  0  0  0
   -4.1503   -0.2786   -1.5103 H   0  0  0  0  0  0  0  0  0  0  0  0
   -2.5352   -2.1377    0.3528 H   0  0  0  0  0  0  0  0  0  0  0  0
   -3.7510   -2.6767   -0.8347 H   0  0  0  0  0  0  0  0  0  0  0  0
   -0.7370   -3.4497    0.0091 H   0  0  0  0  0  0  0  0  0  0  0  0
    0.8665   -3.2940   -0.6969 H   0  0  0  0  0  0  0  0  0  0  0  0
   -0.4886   -1.4700    1.3728 H   0  0  0  0  0  0  0  0  0  0  0  0
    1.0796   -2.3276    1.4743 H   0  0  0  0  0  0  0  0  0  0  0  0
    1.5622    0.0245    1.1832 H   0  0  0  0  0  0  0  0  0  0  0  0
    0.3906    0.2157   -0.1208 H   0  0  0  0  0  0  0  0  0  0  0  0
    5.1905   -0.9178    2.6667 H   0  0  0  0  0  0  0  0  0  0  0  0
    5.7336   -1.7358    1.1709 H   0  0  0  0  0  0  0  0  0  0  0  0
    4.7279    1.6936    2.4608 H   0  0  0  0  0  0  0  0  0  0  0  0
    5.8871    3.7805    1.8219 H   0  0  0  0  0  0  0  0  0  0  0  0
    7.7424    3.7235    0.1784 H   0  0  0  0  0  0  0  0  0  0  0  0
    8.4399    1.5694   -0.8311 H   0  0  0  0  0  0  0  0  0  0  0  0
    7.2942   -0.5256   -0.2056 H   0  0  0  0  0  0  0  0  0  0  0  0
    2.1905   -2.2266   -2.2855 H   0  0  0  0  0  0  0  0  0  0  0  0
    2.3331   -0.5127   -2.7717 H   0  0  0  0  0  0  0  0  0  0  0  0
   -0.0319   -0.0959   -2.4056 H   0  0  0  0  0  0  0  0  0  0  0  0
    0.1726   -1.5376   -3.4417 H   0  0  0  0  0  0  0  0  0  0  0  0
   -4.4049   -0.8029    1.5247 H   0  0  0  0  0  0  0  0  0  0  0  0
   -5.5221   -1.4036    0.2714 H   0  0  0  0  0  0  0  0  0  0  0  0
   -6.8670    0.1924   -1.1167 H   0  0  0  0  0  0  0  0  0  0  0  0
   -5.7694    3.6961    2.2212 H   0  0  0  0  0  0  0  0  0  0  0  0
  2  3  1  0
  3  4  1  0
  4  5  1  0
  5  6  2  0
  5  7  1  0
  7  8  1  0
  8  9  1  0
  9 10  1  0
 10 11  1  0
 11 12  1  0
 12 13  2  0
 12 14  1  0
 14 15  1  0
 15 16  1  0
 16 17  2  0
 17 18  1  0
 18 19  2  0
 19 20  1  0
 20 21  2  0
 11 22  1  0
 22 23  1  0
  3 24  1  0
 24 25  1  0
 25 26  2  0
 26 27  1  0
 27 28  1  0
 27 29  2  0
 29 30  1  0
 29 31  1  0
 31 32  2  0
 32 33  1  0
 23  7  1  0
 32 25  1  0
 21 16  1  0
  1 34  1  0
  2 35  1  0
  2 36  1  0
  3 37  1  6
  4 38  1  0
  4 39  1  0
  8 40  1  0
  8 41  1  0
  9 42  1  0
  9 43  1  0
 10 44  1  0
 10 45  1  0
 15 46  1  0
 15 47  1  0
 17 48  1  0
 18 49  1  0
 19 50  1  0
 20 51  1  0
 21 52  1  0
 22 53  1  0
 22 54  1  0
 23 55  1  0
 23 56  1  0
 24 57  1  0
 24 58  1  0
 26 59  1  0
 31 60  1  0
M  END
$$$$
