
     RDKit          3D

 49 52  0  0  0  0  0  0  0  0999 V2000
   -0.3672   -0.6130    0.7193 O   0  0  0  0  0  0  0  0  0  0  0  0
    0.3214    0.0117   -0.1340 C   0  0  0  0  0  0  0  0  0  0  0  0
   -0.3589    0.9787   -1.0825 C   0  0  2  0  0  0  0  0  0  0  0  0
   -0.5305    2.3586   -0.4396 C   0  0  0  0  0  0  0  0  0  0  0  0
   -1.9140    2.7813   -0.6508 N   0  0  0  0  0  0  0  0  0  0  0  0
   -2.7039    1.5626   -0.8493 C   0  0  2  0  0  0  0  0  0  0  0  0
   -3.2862    1.0281    0.4495 C   0  0  0  0  0  0  0  0  0  0  0  0
   -2.6985    1.2661    1.5406 O   0  0  0  0  0  0  0  0  0  0  0  0
   -4.4534    0.1853    0.4506 N   0  0  0  0  0  0  0  0  0  0  0  0
   -4.9468   -0.4684    1.6501 C   0  0  0  0  0  0  0  0  0  0  0  0
   -6.0269   -1.4329    1.1796 C   0  0  0  0  0  0  0  0  0  0  0  0
   -6.3983   -0.9907   -0.2333 C   0  0  0  0  0  0  0  0  0  0  0  0
   -5.2296   -0.1504   -0.7317 C   0  0  0  0  0  0  0  0  0  0  0  0
   -1.7680    0.5404   -1.4844 C   0  0  0  0  0  0  0  0  0  0  0  0
    1.7511   -0.1442   -0.1311 N   0  0  0  0  0  0  0  0  0  0  0  0
    2.6759    0.6010   -0.9894 C   0  0  0  0  0  0  0  0  0  0  0  0
    4.0066    0.1321   -0.5345 C   0  0  0  0  0  0  0  0  0  0  0  0
    5.2577    0.5054   -1.0221 C   0  0  0  0  0  0  0  0  0  0  0  0
    6.4018   -0.0758   -0.4534 C   0  0  0  0  0  0  0  0  0  0  0  0
    6.2864   -1.0095    0.6051 C   0  0  0  0  0  0  0  0  0  0  0  0
    7.5166   -1.6673    1.1761 C   0  0  0  0  0  0  0  0  0  0  0  0
    7.3099   -2.0297    2.4959 F   0  0  0  0  0  0  0  0  0  0  0  0
    8.5976   -0.8041    1.1287 F   0  0  0  0  0  0  0  0  0  0  0  0
    7.8110   -2.7990    0.4390 F   0  0  0  0  0  0  0  0  0  0  0  0
    5.0024   -1.3849    1.0574 C   0  0  0  0  0  0  0  0  0  0  0  0
    3.8822   -0.7912    0.4750 C   0  0  0  0  0  0  0  0  0  0  0  0
    2.4552   -1.0296    0.7990 C   0  0  0  0  0  0  0  0  0  0  0  0
    0.2456    1.0771   -2.0100 H   0  0  0  0  0  0  0  0  0  0  0  0
    0.1539    3.0929   -0.9157 H   0  0  0  0  0  0  0  0  0  0  0  0
   -0.3042    2.3364    0.6516 H   0  0  0  0  0  0  0  0  0  0  0  0
   -2.2561    3.3407    0.1659 H   0  0  0  0  0  0  0  0  0  0  0  0
   -3.5290    1.8004   -1.5524 H   0  0  0  0  0  0  0  0  0  0  0  0
   -4.1266   -1.0220    2.1573 H   0  0  0  0  0  0  0  0  0  0  0  0
   -5.3733    0.2920    2.3396 H   0  0  0  0  0  0  0  0  0  0  0  0
   -6.9097   -1.4124    1.8550 H   0  0  0  0  0  0  0  0  0  0  0  0
   -5.6161   -2.4661    1.1478 H   0  0  0  0  0  0  0  0  0  0  0  0
   -6.5790   -1.8652   -0.8954 H   0  0  0  0  0  0  0  0  0  0  0  0
   -7.3183   -0.3665   -0.1956 H   0  0  0  0  0  0  0  0  0  0  0  0
   -4.6033   -0.7357   -1.4390 H   0  0  0  0  0  0  0  0  0  0  0  0
   -5.6062    0.7710   -1.2258 H   0  0  0  0  0  0  0  0  0  0  0  0
   -2.0107   -0.5064   -1.1946 H   0  0  0  0  0  0  0  0  0  0  0  0
   -1.8676    0.6041   -2.5912 H   0  0  0  0  0  0  0  0  0  0  0  0
    2.5188    0.3345   -2.0561 H   0  0  0  0  0  0  0  0  0  0  0  0
    2.5699    1.6940   -0.8214 H   0  0  0  0  0  0  0  0  0  0  0  0
    5.3458    1.2228   -1.8278 H   0  0  0  0  0  0  0  0  0  0  0  0
    7.3749    0.1989   -0.8404 H   0  0  0  0  0  0  0  0  0  0  0  0
    4.8752   -2.1222    1.8401 H   0  0  0  0  0  0  0  0  0  0  0  0
    2.1811   -2.0891    0.6083 H   0  0  0  0  0  0  0  0  0  0  0  0
    2.2415   -0.7394    1.8498 H   0  0  0  0  0  0  0  0  0  0  0  0
  1  2  2  0
  2  3  1  0
  3  4  1  0
  4  5  1  0
  5  6  1  0
  6  7  1  0
  7  8  2  0
  7  9  1  0
  9 10  1  0
 10 11  1  0
 11 12  1  0
 12 13  1  0
  6 14  1  0
  2 15  1  0
 15 16  1  0
 16 17  1  0
 17 18  2  0
 18 19  1  0
 19 20  2  0
 20 21  1  0
 21 22  1  0
 21 23  1  0
 21 24  1  0
 20 25  1  0
 25 26  2  0
 26 27  1  0
 14  3  1  0
 27 15  1  0
 13  9  1  0
 26 17  1  0
  3 28  1  6
  4 29  1  0
  4 30  1  0
  5 31  1  0
  6 32  1  6
 10 33  1  0
 10 34  1  0
 11 35  1  0
 11 36  1  0
 12 37  1  0
 12 38  1  0
 13 39  1  0
 13 40  1  0
 14 41  1  0
 14 42  1  0
 16 43  1  0
 16 44  1  0
 18 45  1  0
 19 46  1  0
 25 47  1  0
 27 48  1  0
 27 49  1  0
M  END
$$$$
