
     RDKit          3D

 53 56  0  0  0  0  0  0  0  0999 V2000
   -6.9202    0.5921    1.5642 C   0  0  0  0  0  0  0  0  0  0  0  0
   -6.1177   -0.2965    0.7935 O   0  0  0  0  0  0  0  0  0  0  0  0
   -4.7397   -0.1387    0.5746 C   0  0  0  0  0  0  0  0  0  0  0  0
   -4.0182    0.9448    1.1065 C   0  0  0  0  0  0  0  0  0  0  0  0
   -2.6395    1.0663    0.8827 C   0  0  0  0  0  0  0  0  0  0  0  0
   -1.9650    0.1045    0.1069 C   0  0  0  0  0  0  0  0  0  0  0  0
   -2.6968   -0.9610   -0.4462 C   0  0  0  0  0  0  0  0  0  0  0  0
   -4.0771   -1.0936   -0.2075 C   0  0  0  0  0  0  0  0  0  0  0  0
   -4.8259   -2.1582   -0.7345 O   0  0  0  0  0  0  0  0  0  0  0  0
   -4.2897   -3.2022   -1.5408 C   0  0  0  0  0  0  0  0  0  0  0  0
   -0.4704    0.2158   -0.1782 C   0  0  0  0  0  0  0  0  0  0  0  0
    0.3148   -0.9946    0.3799 C   0  0  0  0  0  0  0  0  0  0  0  0
    1.7743   -1.0073   -0.1532 C   0  0  0  0  0  0  0  0  0  0  0  0
    2.6745   -1.6496    0.8083 N   0  0  0  0  0  0  0  0  0  0  0  0
    2.2565    0.4175   -0.5428 C   0  0  0  0  0  0  0  0  0  0  0  0
    3.7326    0.5199   -0.6584 N   0  0  0  0  0  0  0  0  0  0  0  0
    4.2999    0.5622   -2.0182 C   0  0  0  0  0  0  0  0  0  0  0  0
    5.7751    0.1530   -2.0399 C   0  0  0  0  0  0  0  0  0  0  0  0
    6.5537    0.9991   -1.0393 C   0  0  0  0  0  0  0  0  0  0  0  0
    5.9990    0.8489    0.2620 O   0  0  0  0  0  0  0  0  0  0  0  0
    4.6247    0.7068    0.4698 C   0  0  0  0  0  0  0  0  0  0  0  0
    4.1966    0.7006    1.6522 O   0  0  0  0  0  0  0  0  0  0  0  0
    1.6219    1.4886    0.3683 C   0  0  0  0  0  0  0  0  0  0  0  0
    0.1340    1.5090    0.2719 N   0  0  0  0  0  0  0  0  0  0  0  0
   -0.4347    1.9908    1.5460 C   0  0  0  0  0  0  0  0  0  0  0  0
   -1.9185    2.2805    1.3850 C   0  0  0  0  0  0  0  0  0  0  0  0
   -7.9654    0.2210    1.5732 H   0  0  0  0  0  0  0  0  0  0  0  0
   -6.5485    0.6329    2.6099 H   0  0  0  0  0  0  0  0  0  0  0  0
   -6.9075    1.6068    1.1131 H   0  0  0  0  0  0  0  0  0  0  0  0
   -4.5229    1.7036    1.6897 H   0  0  0  0  0  0  0  0  0  0  0  0
   -2.1851   -1.6804   -1.0706 H   0  0  0  0  0  0  0  0  0  0  0  0
   -3.8627   -2.7817   -2.4758 H   0  0  0  0  0  0  0  0  0  0  0  0
   -5.1029   -3.9075   -1.8081 H   0  0  0  0  0  0  0  0  0  0  0  0
   -3.5089   -3.7567   -0.9783 H   0  0  0  0  0  0  0  0  0  0  0  0
   -0.3915    0.1831   -1.2876 H   0  0  0  0  0  0  0  0  0  0  0  0
   -0.1700   -1.9520    0.0935 H   0  0  0  0  0  0  0  0  0  0  0  0
    0.2973   -0.9432    1.4899 H   0  0  0  0  0  0  0  0  0  0  0  0
    1.7913   -1.6140   -1.0875 H   0  0  0  0  0  0  0  0  0  0  0  0
    2.5467   -1.2182    1.7520 H   0  0  0  0  0  0  0  0  0  0  0  0
    2.3998   -2.6552    0.8953 H   0  0  0  0  0  0  0  0  0  0  0  0
    1.8322    0.6243   -1.5525 H   0  0  0  0  0  0  0  0  0  0  0  0
    4.1933    1.5919   -2.4238 H   0  0  0  0  0  0  0  0  0  0  0  0
    3.7421   -0.1306   -2.6860 H   0  0  0  0  0  0  0  0  0  0  0  0
    5.8689   -0.9220   -1.7715 H   0  0  0  0  0  0  0  0  0  0  0  0
    6.1905    0.3011   -3.0600 H   0  0  0  0  0  0  0  0  0  0  0  0
    7.6178    0.6827   -1.0224 H   0  0  0  0  0  0  0  0  0  0  0  0
    6.5095    2.0696   -1.3358 H   0  0  0  0  0  0  0  0  0  0  0  0
    2.0102    2.4878    0.0756 H   0  0  0  0  0  0  0  0  0  0  0  0
    1.9323    1.2983    1.4168 H   0  0  0  0  0  0  0  0  0  0  0  0
   -0.2853    1.2408    2.3557 H   0  0  0  0  0  0  0  0  0  0  0  0
    0.0652    2.9367    1.8541 H   0  0  0  0  0  0  0  0  0  0  0  0
   -2.0593    3.1109    0.6598 H   0  0  0  0  0  0  0  0  0  0  0  0
   -2.3311    2.5963    2.3683 H   0  0  0  0  0  0  0  0  0  0  0  0
  1  2  1  0
  2  3  1  0
  3  4  2  0
  4  5  1  0
  5  6  2  0
  6  7  1  0
  7  8  2  0
  8  9  1  0
  9 10  1  0
  6 11  1  0
 11 12  1  0
 12 13  1  0
 13 14  1  0
 13 15  1  0
 15 16  1  0
 16 17  1  0
 17 18  1  0
 18 19  1  0
 19 20  1  0
 20 21  1  0
 21 22  2  0
 15 23  1  0
 23 24  1  0
 24 25  1  0
 25 26  1  0
  8  3  1  0
 24 11  1  0
 26  5  1  0
 21 16  1  0
  1 27  1  0
  1 28  1  0
  1 29  1  0
  4 30  1  0
  7 31  1  0
 10 32  1  0
 10 33  1  0
 10 34  1  0
 11 35  1  0
 12 36  1  0
 12 37  1  0
 13 38  1  0
 14 39  1  0
 14 40  1  0
 15 41  1  0
 17 42  1  0
 17 43  1  0
 18 44  1  0
 18 45  1  0
 19 46  1  0
 19 47  1  0
 23 48  1  0
 23 49  1  0
 25 50  1  0
 25 51  1  0
 26 52  1  0
 26 53  1  0
M  END
$$$$
