
     RDKit          3D

 96102  0  0  0  0  0  0  0  0999 V2000
   12.0404    2.2602    0.0802 C   0  0  0  0  0  0  0  0  0  0  0  0
   10.7610    2.0211   -0.5858 N   0  0  0  0  0  0  0  0  0  0  0  0
   10.5738    2.5255   -1.9450 C   0  0  0  0  0  0  0  0  0  0  0  0
    9.6066    1.7289    0.2197 C   0  0  0  0  0  0  0  0  0  0  0  0
    8.7048    2.7575    0.5183 C   0  0  0  0  0  0  0  0  0  0  0  0
    7.5912    2.5115    1.3157 C   0  0  0  0  0  0  0  0  0  0  0  0
    7.3578    1.2360    1.8271 C   0  0  0  0  0  0  0  0  0  0  0  0
    8.2379    0.1714    1.5410 C   0  0  0  0  0  0  0  0  0  0  0  0
    8.0151   -1.1408    2.0400 C   0  0  0  0  0  0  0  0  0  0  0  0
    6.6105   -1.5499    3.0454 S   0  0  0  0  0  0  0  0  0  0  0  0
    6.6709   -0.7547    4.3193 O   0  0  0  0  0  0  0  0  0  0  0  0
    6.6224   -3.0124    3.3975 O   0  0  0  0  0  0  0  0  0  0  0  0
    5.1373   -1.1792    2.2006 N   0  0  0  0  0  0  0  0  0  0  0  0
    5.0430   -1.9958    0.9876 C   0  0  0  0  0  0  0  0  0  0  0  0
    3.8341   -1.5687    0.1514 C   0  0  0  0  0  0  0  0  0  0  0  0
    2.6331   -1.7317    0.8832 O   0  0  0  0  0  0  0  0  0  0  0  0
    2.0278   -2.9707    0.5758 C   0  0  0  0  0  0  0  0  0  0  0  0
    0.8201   -3.1819    1.4858 C   0  0  0  0  0  0  0  0  0  0  0  0
   -0.1111   -2.1088    1.3533 O   0  0  0  0  0  0  0  0  0  0  0  0
   -0.9573   -1.9526    0.2499 C   0  0  0  0  0  0  0  0  0  0  0  0
   -0.9765   -2.8222   -0.6631 O   0  0  0  0  0  0  0  0  0  0  0  0
   -1.8019   -0.7931    0.1818 N   0  0  0  0  0  0  0  0  0  0  0  0
   -2.7173   -0.4652   -0.9282 C   0  0  0  0  0  0  0  0  0  0  0  0
   -3.8022   -1.5662   -1.0892 C   0  0  0  0  0  0  0  0  0  0  0  0
   -4.7580   -1.2038   -2.2473 C   0  0  0  0  0  0  0  0  0  0  0  0
   -3.9554   -1.0685   -3.5572 C   0  0  0  0  0  0  0  0  0  0  0  0
   -2.9021    0.0473   -3.4027 C   0  0  0  0  0  0  0  0  0  0  0  0
   -3.6088    1.3790   -3.0826 C   0  0  0  0  0  0  0  0  0  0  0  0
   -4.4179    1.2673   -1.7618 C   0  0  0  0  0  0  0  0  0  0  0  0
   -5.0549    2.5870   -1.5197 N   0  0  0  0  0  0  0  0  0  0  0  0
   -6.0640    2.6391   -0.4462 C   0  0  0  0  0  0  0  0  0  0  0  0
   -7.4419    2.4260   -1.0121 C   0  0  0  0  0  0  0  0  0  0  0  0
   -7.7383    2.9638   -2.1137 O   0  0  0  0  0  0  0  0  0  0  0  0
   -8.4382    1.6659   -0.3060 N   0  0  0  0  0  0  0  0  0  0  0  0
   -9.7767    1.4147   -0.8443 C   0  0  0  0  0  0  0  0  0  0  0  0
  -10.4378    0.6519    0.2412 C   0  0  0  0  0  0  0  0  0  0  0  0
  -11.7392    0.1482    0.2657 C   0  0  0  0  0  0  0  0  0  0  0  0
  -12.1667   -0.5517    1.4061 C   0  0  0  0  0  0  0  0  0  0  0  0
  -13.4260   -1.0519    1.4566 F   0  0  0  0  0  0  0  0  0  0  0  0
  -11.2913   -0.7349    2.4955 C   0  0  0  0  0  0  0  0  0  0  0  0
  -11.7082   -1.4117    3.5939 F   0  0  0  0  0  0  0  0  0  0  0  0
   -9.9858   -0.2186    2.4477 C   0  0  0  0  0  0  0  0  0  0  0  0
   -9.5839    0.4739    1.3046 C   0  0  0  0  0  0  0  0  0  0  0  0
   -8.2656    1.0946    1.0328 C   0  0  0  0  0  0  0  0  0  0  0  0
   -5.4674    0.1296   -1.9345 C   0  0  0  0  0  0  0  0  0  0  0  0
   -3.4304    0.8837   -0.6187 C   0  0  0  0  0  0  0  0  0  0  0  0
   -1.9315   -0.3093   -2.2579 C   0  0  0  0  0  0  0  0  0  0  0  0
    8.9187   -2.1633    1.7152 C   0  0  0  0  0  0  0  0  0  0  0  0
   10.0246   -1.9088    0.9094 C   0  0  0  0  0  0  0  0  0  0  0  0
   10.2541   -0.6290    0.4132 C   0  0  0  0  0  0  0  0  0  0  0  0
    9.3773    0.4262    0.7233 C   0  0  0  0  0  0  0  0  0  0  0  0
   12.8774    1.9545   -0.5824 H   0  0  0  0  0  0  0  0  0  0  0  0
   12.1394    3.3393    0.3221 H   0  0  0  0  0  0  0  0  0  0  0  0
   12.1097    1.6725    1.0206 H   0  0  0  0  0  0  0  0  0  0  0  0
    9.6519    2.0964   -2.3933 H   0  0  0  0  0  0  0  0  0  0  0  0
   10.4903    3.6326   -1.9276 H   0  0  0  0  0  0  0  0  0  0  0  0
   11.4358    2.2340   -2.5815 H   0  0  0  0  0  0  0  0  0  0  0  0
    8.8753    3.7575    0.1398 H   0  0  0  0  0  0  0  0  0  0  0  0
    6.9052    3.3172    1.5439 H   0  0  0  0  0  0  0  0  0  0  0  0
    6.4828    1.1023    2.4451 H   0  0  0  0  0  0  0  0  0  0  0  0
    4.3528   -1.4472    2.8387 H   0  0  0  0  0  0  0  0  0  0  0  0
    4.9602   -3.0736    1.2492 H   0  0  0  0  0  0  0  0  0  0  0  0
    5.9521   -1.8560    0.3631 H   0  0  0  0  0  0  0  0  0  0  0  0
    3.9427   -0.4911   -0.0961 H   0  0  0  0  0  0  0  0  0  0  0  0
    3.8386   -2.1118   -0.8237 H   0  0  0  0  0  0  0  0  0  0  0  0
    2.7347   -3.8150    0.7407 H   0  0  0  0  0  0  0  0  0  0  0  0
    1.6893   -2.9837   -0.4842 H   0  0  0  0  0  0  0  0  0  0  0  0
    0.3272   -4.1509    1.2529 H   0  0  0  0  0  0  0  0  0  0  0  0
    1.1674   -3.2207    2.5401 H   0  0  0  0  0  0  0  0  0  0  0  0
   -1.7360   -0.1330    0.9901 H   0  0  0  0  0  0  0  0  0  0  0  0
   -3.3426   -2.5524   -1.3062 H   0  0  0  0  0  0  0  0  0  0  0  0
   -4.3786   -1.6745   -0.1437 H   0  0  0  0  0  0  0  0  0  0  0  0
   -5.5184   -2.0067   -2.3630 H   0  0  0  0  0  0  0  0  0  0  0  0
   -4.6410   -0.8298   -4.3998 H   0  0  0  0  0  0  0  0  0  0  0  0
   -3.4561   -2.0325   -3.7990 H   0  0  0  0  0  0  0  0  0  0  0  0
   -2.3320    0.1506   -4.3516 H   0  0  0  0  0  0  0  0  0  0  0  0
   -4.2867    1.6524   -3.9218 H   0  0  0  0  0  0  0  0  0  0  0  0
   -2.8494    2.1884   -3.0006 H   0  0  0  0  0  0  0  0  0  0  0  0
   -4.3069    3.2874   -1.3008 H   0  0  0  0  0  0  0  0  0  0  0  0
   -5.8396    1.9220    0.3647 H   0  0  0  0  0  0  0  0  0  0  0  0
   -6.0551    3.6491    0.0191 H   0  0  0  0  0  0  0  0  0  0  0  0
  -10.3089    2.3726   -1.0269 H   0  0  0  0  0  0  0  0  0  0  0  0
   -9.7136    0.8040   -1.7701 H   0  0  0  0  0  0  0  0  0  0  0  0
  -12.4042    0.2937   -0.5758 H   0  0  0  0  0  0  0  0  0  0  0  0
   -9.3060   -0.3553    3.2788 H   0  0  0  0  0  0  0  0  0  0  0  0
   -7.4720    0.3180    1.0290 H   0  0  0  0  0  0  0  0  0  0  0  0
   -8.0505    1.8945    1.7729 H   0  0  0  0  0  0  0  0  0  0  0  0
   -6.0634   -0.0074   -1.0084 H   0  0  0  0  0  0  0  0  0  0  0  0
   -6.1752    0.3811   -2.7550 H   0  0  0  0  0  0  0  0  0  0  0  0
   -2.6710    1.6874   -0.4920 H   0  0  0  0  0  0  0  0  0  0  0  0
   -3.9652    0.7866    0.3490 H   0  0  0  0  0  0  0  0  0  0  0  0
   -1.1605    0.4860   -2.1544 H   0  0  0  0  0  0  0  0  0  0  0  0
   -1.4006   -1.2472   -2.5224 H   0  0  0  0  0  0  0  0  0  0  0  0
    8.7676   -3.1705    2.0801 H   0  0  0  0  0  0  0  0  0  0  0  0
   10.7078   -2.7118    0.6640 H   0  0  0  0  0  0  0  0  0  0  0  0
   11.1192   -0.4738   -0.2186 H   0  0  0  0  0  0  0  0  0  0  0  0
  1  2  1  0
  2  3  1  0
  2  4  1  0
  4  5  2  0
  5  6  1  0
  6  7  2  0
  7  8  1  0
  8  9  2  0
  9 10  1  0
 10 11  2  0
 10 12  2  0
 10 13  1  0
 13 14  1  0
 14 15  1  0
 15 16  1  0
 16 17  1  0
 17 18  1  0
 18 19  1  0
 19 20  1  0
 20 21  2  0
 20 22  1  0
 22 23  1  0
 23 24  1  0
 24 25  1  0
 25 26  1  0
 26 27  1  0
 27 28  1  0
 28 29  1  0
 29 30  1  0
 30 31  1  0
 31 32  1  0
 32 33  2  0
 32 34  1  0
 34 35  1  0
 35 36  1  0
 36 37  2  0
 37 38  1  0
 38 39  1  0
 38 40  2  0
 40 41  1  0
 40 42  1  0
 42 43  2  0
 43 44  1  0
 29 45  1  0
 29 46  1  0
 27 47  1  0
  9 48  1  0
 48 49  2  0
 49 50  1  0
 50 51  2  0
 51  4  1  0
 51  8  1  0
 46 23  1  0
 47 23  1  0
 45 25  1  0
 44 34  1  0
 43 36  1  0
  1 52  1  0
  1 53  1  0
  1 54  1  0
  3 55  1  0
  3 56  1  0
  3 57  1  0
  5 58  1  0
  6 59  1  0
  7 60  1  0
 13 61  1  0
 14 62  1  0
 14 63  1  0
 15 64  1  0
 15 65  1  0
 17 66  1  0
 17 67  1  0
 18 68  1  0
 18 69  1  0
 22 70  1  0
 24 71  1  0
 24 72  1  0
 25 73  1  0
 26 74  1  0
 26 75  1  0
 27 76  1  0
 28 77  1  0
 28 78  1  0
 30 79  1  0
 31 80  1  0
 31 81  1  0
 35 82  1  0
 35 83  1  0
 37 84  1  0
 42 85  1  0
 44 86  1  0
 44 87  1  0
 45 88  1  0
 45 89  1  0
 46 90  1  0
 46 91  1  0
 47 92  1  0
 47 93  1  0
 48 94  1  0
 49 95  1  0
 50 96  1  0
M  END
$$$$
