
     RDKit          3D

 55 56  0  0  0  0  0  0  0  0999 V2000
   -1.4611    0.8625    1.7518 C   0  0  0  0  0  0  0  0  0  0  0  0
   -0.8599    1.2179    0.3804 C   0  0  1  0  0  0  0  0  0  0  0  0
    0.6079    0.8230    0.3479 C   0  0  0  0  0  0  0  0  0  0  0  0
    1.0007   -0.5217    0.4801 C   0  0  0  0  0  0  0  0  0  0  0  0
    2.3522   -0.8737    0.4401 C   0  0  0  0  0  0  0  0  0  0  0  0
    3.3399    0.1094    0.2641 C   0  0  0  0  0  0  0  0  0  0  0  0
    4.7758   -0.2605    0.2275 C   0  0  0  0  0  0  0  0  0  0  0  0
    5.7089    0.4689    0.9874 C   0  0  0  0  0  0  0  0  0  0  0  0
    7.0642    0.1259    0.9652 C   0  0  0  0  0  0  0  0  0  0  0  0
    7.9538    0.8314    1.7063 F   0  0  0  0  0  0  0  0  0  0  0  0
    7.5024   -0.9446    0.1826 C   0  0  0  0  0  0  0  0  0  0  0  0
    6.5873   -1.6723   -0.5813 C   0  0  0  0  0  0  0  0  0  0  0  0
    5.2295   -1.3358   -0.5636 C   0  0  0  0  0  0  0  0  0  0  0  0
    4.3691   -2.0364   -1.3455 F   0  0  0  0  0  0  0  0  0  0  0  0
    2.9495    1.4529    0.1393 C   0  0  0  0  0  0  0  0  0  0  0  0
    1.5979    1.8056    0.1782 C   0  0  0  0  0  0  0  0  0  0  0  0
   -1.6565    0.5791   -0.7935 C   0  0  2  0  0  0  0  0  0  0  0  0
   -1.0608    0.9535   -2.0808 N   0  0  0  0  0  0  0  0  0  0  0  0
   -3.0994    1.0435   -0.7676 C   0  0  0  0  0  0  0  0  0  0  0  0
   -3.3530    2.2462   -1.0526 O   0  0  0  0  0  0  0  0  0  0  0  0
   -4.1778    0.1670   -0.3883 N   0  0  0  0  0  0  0  0  0  0  0  0
   -5.5360    0.6430   -0.1883 C   0  0  0  0  0  0  0  0  0  0  0  0
   -6.3094   -0.5414    0.3749 C   0  0  0  0  0  0  0  0  0  0  0  0
   -5.4668   -1.7740    0.0567 C   0  0  2  0  0  0  0  0  0  0  0  0
   -5.5108   -2.6881    1.0962 F   0  0  0  0  0  0  0  0  0  0  0  0
   -4.0482   -1.2637   -0.1649 C   0  0  0  0  0  0  0  0  0  0  0  0
    0.7331   -0.0130   -1.5559 O   0  0  0  0  0  0  0  0  0  0  0  0
    0.4665    0.0037   -0.3244 C   0  0  0  0  0  0  0  0  0  0  0  0
    1.4963   -0.0674    0.6090 O   0  0  0  0  0  0  0  0  0  0  0  0
   -0.9559    0.0398    0.1324 C   0  0  0  0  0  0  0  0  0  0  0  0
   -1.4752   -1.2408    0.1163 F   0  0  0  0  0  0  0  0  0  0  0  0
   -1.7021    0.8457   -0.7084 F   0  0  0  0  0  0  0  0  0  0  0  0
   -1.0269    0.5435    1.4184 F   0  0  0  0  0  0  0  0  0  0  0  0
   -0.8358    1.2897    2.5649 H   0  0  0  0  0  0  0  0  0  0  0  0
   -2.4814    1.2885    1.8540 H   0  0  0  0  0  0  0  0  0  0  0  0
   -1.5211   -0.2376    1.8883 H   0  0  0  0  0  0  0  0  0  0  0  0
   -0.9377    2.3240    0.2758 H   0  0  0  0  0  0  0  0  0  0  0  0
    0.2619   -1.3006    0.6171 H   0  0  0  0  0  0  0  0  0  0  0  0
    2.6270   -1.9138    0.5637 H   0  0  0  0  0  0  0  0  0  0  0  0
    5.3852    1.2942    1.6098 H   0  0  0  0  0  0  0  0  0  0  0  0
    8.5518   -1.2094    0.1647 H   0  0  0  0  0  0  0  0  0  0  0  0
    6.9325   -2.4954   -1.1937 H   0  0  0  0  0  0  0  0  0  0  0  0
    3.6910    2.2293   -0.0035 H   0  0  0  0  0  0  0  0  0  0  0  0
    1.3257    2.8482    0.0715 H   0  0  0  0  0  0  0  0  0  0  0  0
   -1.6103   -0.5259   -0.6975 H   0  0  0  0  0  0  0  0  0  0  0  0
   -1.6487    0.5503   -2.8471 H   0  0  0  0  0  0  0  0  0  0  0  0
   -0.1308    0.4844   -2.1727 H   0  0  0  0  0  0  0  0  0  0  0  0
   -5.5482    1.4927    0.5288 H   0  0  0  0  0  0  0  0  0  0  0  0
   -5.9657    0.9630   -1.1623 H   0  0  0  0  0  0  0  0  0  0  0  0
   -7.3220   -0.6159   -0.0777 H   0  0  0  0  0  0  0  0  0  0  0  0
   -6.4098   -0.4272    1.4770 H   0  0  0  0  0  0  0  0  0  0  0  0
   -5.8441   -2.2530   -0.8736 H   0  0  0  0  0  0  0  0  0  0  0  0
   -3.5995   -1.7572   -1.0542 H   0  0  0  0  0  0  0  0  0  0  0  0
   -3.4193   -1.4459    0.7330 H   0  0  0  0  0  0  0  0  0  0  0  0
    2.4641   -0.1116    0.3126 H   0  0  0  0  0  0  0  0  0  0  0  0
  1  2  1  0
  2  3  1  0
  3  4  2  0
  4  5  1  0
  5  6  2  0
  6  7  1  0
  7  8  2  0
  8  9  1  0
  9 10  1  0
  9 11  2  0
 11 12  1  0
 12 13  2  0
 13 14  1  0
  6 15  1  0
 15 16  2  0
  2 17  1  0
 17 18  1  0
 17 19  1  0
 19 20  2  0
 19 21  1  0
 21 22  1  0
 22 23  1  0
 23 24  1  0
 24 25  1  0
 24 26  1  0
 27 28  2  0
 28 29  1  0
 28 30  1  0
 30 31  1  0
 30 32  1  0
 30 33  1  0
 16  3  1  0
 26 21  1  0
 13  7  1  0
  1 34  1  0
  1 35  1  0
  1 36  1  0
  2 37  1  6
  4 38  1  0
  5 39  1  0
  8 40  1  0
 11 41  1  0
 12 42  1  0
 15 43  1  0
 16 44  1  0
 17 45  1  1
 18 46  1  0
 18 47  1  0
 22 48  1  0
 22 49  1  0
 23 50  1  0
 23 51  1  0
 24 52  1  6
 26 53  1  0
 26 54  1  0
 29 55  1  0
M  END
$$$$
