
     RDKit          3D

 54 57  0  0  0  0  0  0  0  0999 V2000
    4.3532   -1.6055   -1.6918 O   0  0  0  0  0  0  0  0  0  0  0  0
    4.3111   -0.5334   -1.0277 C   0  0  0  0  0  0  0  0  0  0  0  0
    3.1254    0.3871   -1.1920 C   0  0  2  0  0  0  0  0  0  0  0  0
    2.0138    0.0431   -0.2004 C   0  0  0  0  0  0  0  0  0  0  0  0
    0.7239    0.1796   -0.9966 C   0  0  2  0  0  0  0  0  0  0  0  0
   -0.3459   -0.7325   -0.5065 N   0  0  0  0  0  0  0  0  0  0  0  0
   -0.7745   -0.4076    0.8830 C   0  0  0  0  0  0  0  0  0  0  0  0
   -2.0684    0.4169    0.9485 C   0  0  0  0  0  0  0  0  0  0  0  0
   -3.1497   -0.2675    0.2280 N   0  0  0  0  0  0  0  0  0  0  0  0
   -4.5363   -0.0403    0.5595 C   0  0  0  0  0  0  0  0  0  0  0  0
   -4.9526    1.1422    1.1942 C   0  0  0  0  0  0  0  0  0  0  0  0
   -6.3031    1.3258    1.4948 C   0  0  0  0  0  0  0  0  0  0  0  0
   -7.2451    0.3471    1.1452 C   0  0  0  0  0  0  0  0  0  0  0  0
   -8.6987    0.5115    1.5090 C   0  0  0  0  0  0  0  0  0  0  0  0
   -8.9124   -0.0031    2.7740 F   0  0  0  0  0  0  0  0  0  0  0  0
   -9.0559    1.8488    1.4996 F   0  0  0  0  0  0  0  0  0  0  0  0
   -9.5067   -0.1588    0.6068 F   0  0  0  0  0  0  0  0  0  0  0  0
   -6.7875   -0.8278    0.5296 C   0  0  0  0  0  0  0  0  0  0  0  0
   -5.4671   -0.9857    0.2491 N   0  0  0  0  0  0  0  0  0  0  0  0
   -2.7939   -1.2392   -0.8109 C   0  0  0  0  0  0  0  0  0  0  0  0
   -1.4756   -0.8233   -1.4715 C   0  0  0  0  0  0  0  0  0  0  0  0
    1.1893   -0.1624   -2.4130 C   0  0  0  0  0  0  0  0  0  0  0  0
    2.5775    0.2734   -2.5489 N   0  0  0  0  0  0  0  0  0  0  0  0
    5.3611   -0.2440   -0.0866 N   0  0  0  0  0  0  0  0  0  0  0  0
    5.3786    0.9064    0.8025 C   0  0  0  0  0  0  0  0  0  0  0  0
    6.5622    0.6856    1.7353 C   0  0  0  0  0  0  0  0  0  0  0  0
    7.4393   -0.3607    1.0492 C   0  0  0  0  0  0  0  0  0  0  0  0
    7.9961   -1.2262    1.9759 F   0  0  0  0  0  0  0  0  0  0  0  0
    8.4506    0.2675    0.3404 F   0  0  0  0  0  0  0  0  0  0  0  0
    6.5175   -1.1057    0.0896 C   0  0  0  0  0  0  0  0  0  0  0  0
    3.4500    1.4385   -1.0181 H   0  0  0  0  0  0  0  0  0  0  0  0
    2.0363    0.7451    0.6610 H   0  0  0  0  0  0  0  0  0  0  0  0
    2.1160   -1.0012    0.1745 H   0  0  0  0  0  0  0  0  0  0  0  0
    0.3787    1.2393   -0.9686 H   0  0  0  0  0  0  0  0  0  0  0  0
   -0.9437   -1.3643    1.4228 H   0  0  0  0  0  0  0  0  0  0  0  0
    0.0077    0.1269    1.4592 H   0  0  0  0  0  0  0  0  0  0  0  0
   -2.3415    0.5375    2.0197 H   0  0  0  0  0  0  0  0  0  0  0  0
   -1.9022    1.4217    0.5042 H   0  0  0  0  0  0  0  0  0  0  0  0
   -4.2473    1.9223    1.4479 H   0  0  0  0  0  0  0  0  0  0  0  0
   -6.6112    2.2338    1.9979 H   0  0  0  0  0  0  0  0  0  0  0  0
   -7.4771   -1.6213    0.2730 H   0  0  0  0  0  0  0  0  0  0  0  0
   -2.6970   -2.2505   -0.3603 H   0  0  0  0  0  0  0  0  0  0  0  0
   -3.5816   -1.2721   -1.5954 H   0  0  0  0  0  0  0  0  0  0  0  0
   -1.6446    0.1560   -1.9756 H   0  0  0  0  0  0  0  0  0  0  0  0
   -1.2294   -1.5741   -2.2522 H   0  0  0  0  0  0  0  0  0  0  0  0
    0.5443    0.3283   -3.1758 H   0  0  0  0  0  0  0  0  0  0  0  0
    1.1557   -1.2623   -2.5745 H   0  0  0  0  0  0  0  0  0  0  0  0
    2.5786    1.2235   -2.9912 H   0  0  0  0  0  0  0  0  0  0  0  0
    5.5223    1.8352    0.2092 H   0  0  0  0  0  0  0  0  0  0  0  0
    4.4344    0.9662    1.3850 H   0  0  0  0  0  0  0  0  0  0  0  0
    7.1169    1.6317    1.9180 H   0  0  0  0  0  0  0  0  0  0  0  0
    6.1956    0.2883    2.7077 H   0  0  0  0  0  0  0  0  0  0  0  0
    7.0208   -1.2849   -0.8855 H   0  0  0  0  0  0  0  0  0  0  0  0
    6.1918   -2.0751    0.5260 H   0  0  0  0  0  0  0  0  0  0  0  0
  1  2  2  0
  2  3  1  0
  3  4  1  0
  4  5  1  0
  5  6  1  0
  6  7  1  0
  7  8  1  0
  8  9  1  0
  9 10  1  0
 10 11  2  0
 11 12  1  0
 12 13  2  0
 13 14  1  0
 14 15  1  0
 14 16  1  0
 14 17  1  0
 13 18  1  0
 18 19  2  0
  9 20  1  0
 20 21  1  0
  5 22  1  0
 22 23  1  0
  2 24  1  0
 24 25  1  0
 25 26  1  0
 26 27  1  0
 27 28  1  0
 27 29  1  0
 27 30  1  0
 23  3  1  0
 30 24  1  0
 21  6  1  0
 19 10  1  0
  3 31  1  1
  4 32  1  0
  4 33  1  0
  5 34  1  6
  7 35  1  0
  7 36  1  0
  8 37  1  0
  8 38  1  0
 11 39  1  0
 12 40  1  0
 18 41  1  0
 20 42  1  0
 20 43  1  0
 21 44  1  0
 21 45  1  0
 22 46  1  0
 22 47  1  0
 23 48  1  0
 25 49  1  0
 25 50  1  0
 26 51  1  0
 26 52  1  0
 30 53  1  0
 30 54  1  0
M  END
$$$$
