
     RDKit          3D

 46 48  0  0  0  0  0  0  0  0999 V2000
    0.9436    1.3414   -2.5183 C   0  0  0  0  0  0  0  0  0  0  0  0
    0.9798    0.2735   -1.4218 C   0  0  2  0  0  0  0  0  0  0  0  0
   -0.3237   -0.3880   -1.3028 N   0  0  0  0  0  0  0  0  0  0  0  0
   -0.4907   -1.6060   -0.5588 C   0  0  0  0  0  0  0  0  0  0  0  0
    0.5022   -2.1377    0.0091 O   0  0  0  0  0  0  0  0  0  0  0  0
   -1.8054   -2.2851   -0.5021 C   0  0  0  0  0  0  0  0  0  0  0  0
   -1.8493   -3.6720   -0.7129 C   0  0  0  0  0  0  0  0  0  0  0  0
   -3.0769   -4.3323   -0.7447 C   0  0  0  0  0  0  0  0  0  0  0  0
   -4.2287   -3.6379   -0.5654 N   0  0  0  0  0  0  0  0  0  0  0  0
   -4.2275   -2.2985   -0.3410 C   0  0  0  0  0  0  0  0  0  0  0  0
   -3.0187   -1.5848   -0.2857 C   0  0  0  0  0  0  0  0  0  0  0  0
   -3.0576   -0.1473    0.0694 C   0  0  0  0  0  0  0  0  0  0  0  0
   -3.8390    0.7469   -0.6819 C   0  0  0  0  0  0  0  0  0  0  0  0
   -3.8895    2.1006   -0.3358 C   0  0  0  0  0  0  0  0  0  0  0  0
   -3.1728    2.5686    0.7687 C   0  0  0  0  0  0  0  0  0  0  0  0
   -2.4055    1.6832    1.5301 C   0  0  0  0  0  0  0  0  0  0  0  0
   -2.3450    0.3302    1.1826 C   0  0  0  0  0  0  0  0  0  0  0  0
    1.3598    0.9077   -0.1045 C   0  0  0  0  0  0  0  0  0  0  0  0
    0.5331    1.6774    0.4562 O   0  0  0  0  0  0  0  0  0  0  0  0
    2.6450    0.6833    0.5099 N   0  0  0  0  0  0  0  0  0  0  0  0
    3.6851   -0.1716   -0.0429 C   0  0  0  0  0  0  0  0  0  0  0  0
    4.8706   -0.0451    0.9086 C   0  0  0  0  0  0  0  0  0  0  0  0
    5.7986    0.8448    0.3923 F   0  0  0  0  0  0  0  0  0  0  0  0
    5.4762   -1.2731    1.1163 F   0  0  0  0  0  0  0  0  0  0  0  0
    4.2934    0.5083    2.2101 C   0  0  0  0  0  0  0  0  0  0  0  0
    3.0061    1.2297    1.8110 C   0  0  1  0  0  0  0  0  0  0  0  0
    3.2229    2.6820    1.7033 C   0  0  0  0  0  0  0  0  0  0  0  0
    3.3927    3.8235    1.6178 N   0  0  0  0  0  0  0  0  0  0  0  0
    1.9400    1.8239   -2.6144 H   0  0  0  0  0  0  0  0  0  0  0  0
    0.6856    0.8738   -3.4923 H   0  0  0  0  0  0  0  0  0  0  0  0
    0.1856    2.1200   -2.2841 H   0  0  0  0  0  0  0  0  0  0  0  0
    1.7261   -0.4868   -1.7309 H   0  0  0  0  0  0  0  0  0  0  0  0
   -1.1347   -0.0221   -1.8517 H   0  0  0  0  0  0  0  0  0  0  0  0
   -0.9399   -4.2367   -0.8797 H   0  0  0  0  0  0  0  0  0  0  0  0
   -3.1145   -5.3991   -0.9203 H   0  0  0  0  0  0  0  0  0  0  0  0
   -5.1710   -1.7929   -0.1774 H   0  0  0  0  0  0  0  0  0  0  0  0
   -4.3989    0.3975   -1.5407 H   0  0  0  0  0  0  0  0  0  0  0  0
   -4.4862    2.7867   -0.9229 H   0  0  0  0  0  0  0  0  0  0  0  0
   -3.2146    3.6164    1.0365 H   0  0  0  0  0  0  0  0  0  0  0  0
   -1.8543    2.0458    2.3881 H   0  0  0  0  0  0  0  0  0  0  0  0
   -1.7506   -0.3456    1.7851 H   0  0  0  0  0  0  0  0  0  0  0  0
    3.3234   -1.2224   -0.0744 H   0  0  0  0  0  0  0  0  0  0  0  0
    3.9631    0.1657   -1.0651 H   0  0  0  0  0  0  0  0  0  0  0  0
    5.0209    1.1655    2.7372 H   0  0  0  0  0  0  0  0  0  0  0  0
    4.0366   -0.3375    2.8859 H   0  0  0  0  0  0  0  0  0  0  0  0
    2.2046    1.0262    2.5544 H   0  0  0  0  0  0  0  0  0  0  0  0
  1  2  1  0
  2  3  1  0
  3  4  1  0
  4  5  2  0
  4  6  1  0
  6  7  2  0
  7  8  1  0
  8  9  2  0
  9 10  1  0
 10 11  2  0
 11 12  1  0
 12 13  2  0
 13 14  1  0
 14 15  2  0
 15 16  1  0
 16 17  2  0
  2 18  1  0
 18 19  2  0
 18 20  1  0
 20 21  1  0
 21 22  1  0
 22 23  1  0
 22 24  1  0
 22 25  1  0
 25 26  1  0
 26 27  1  0
 27 28  3  0
 11  6  1  0
 17 12  1  0
 26 20  1  0
  1 29  1  0
  1 30  1  0
  1 31  1  0
  2 32  1  6
  3 33  1  0
  7 34  1  0
  8 35  1  0
 10 36  1  0
 13 37  1  0
 14 38  1  0
 15 39  1  0
 16 40  1  0
 17 41  1  0
 21 42  1  0
 21 43  1  0
 25 44  1  0
 25 45  1  0
 26 46  1  1
M  END
$$$$
