
     RDKit          3D

 44 45  0  0  0  0  0  0  0  0999 V2000
    0.0564   -1.3323   -3.2125 N   0  0  0  0  0  0  0  0  0  0  0  0
   -0.5236   -0.6948   -2.0251 C   0  0  1  0  0  0  0  0  0  0  0  0
    0.3946    0.4354   -1.5192 C   0  0  0  0  0  0  0  0  0  0  0  0
    1.7563   -0.0797   -1.0353 C   0  0  0  0  0  0  0  0  0  0  0  0
    1.5894   -0.9494    0.1377 N   0  0  0  0  0  0  0  0  0  0  0  0
    2.8389   -1.6387    0.4932 C   0  0  0  0  0  0  0  0  0  0  0  0
    3.8744   -0.6890    1.0469 C   0  0  0  0  0  0  0  0  0  0  0  0
    3.7766   -0.2273    2.3675 C   0  0  0  0  0  0  0  0  0  0  0  0
    4.7305    0.6691    2.8554 C   0  0  0  0  0  0  0  0  0  0  0  0
    5.7422    1.0929    2.0522 N   0  0  0  0  0  0  0  0  0  0  0  0
    5.8579    0.6660    0.7666 C   0  0  0  0  0  0  0  0  0  0  0  0
    4.9256   -0.2307    0.2390 C   0  0  0  0  0  0  0  0  0  0  0  0
   -1.9075   -0.1386   -2.3118 C   0  0  0  0  0  0  0  0  0  0  0  0
   -2.1963    0.2049   -3.4916 O   0  0  0  0  0  0  0  0  0  0  0  0
   -2.8652    0.0838   -1.2511 N   0  0  0  0  0  0  0  0  0  0  0  0
   -2.7620   -0.6590    0.0171 C   0  0  0  0  0  0  0  0  0  0  0  0
   -3.9775   -0.4183    0.9195 C   0  0  0  0  0  0  0  0  0  0  0  0
   -4.2479    1.0815    1.0905 C   0  0  0  0  0  0  0  0  0  0  0  0
   -4.2405    1.8651   -0.2411 C   0  0  0  0  0  0  0  0  0  0  0  0
   -4.0120    0.9789   -1.4723 C   0  0  0  0  0  0  0  0  0  0  0  0
    0.1479   -0.6323   -3.9849 H   0  0  0  0  0  0  0  0  0  0  0  0
   -0.5897   -2.0872   -3.5402 H   0  0  0  0  0  0  0  0  0  0  0  0
   -0.6007   -1.4732   -1.2384 H   0  0  0  0  0  0  0  0  0  0  0  0
   -0.0984    0.9763   -0.6815 H   0  0  0  0  0  0  0  0  0  0  0  0
    0.5592    1.1729   -2.3353 H   0  0  0  0  0  0  0  0  0  0  0  0
    2.2558   -0.6289   -1.8638 H   0  0  0  0  0  0  0  0  0  0  0  0
    2.3882    0.7974   -0.7720 H   0  0  0  0  0  0  0  0  0  0  0  0
    1.2711   -0.3699    0.9503 H   0  0  0  0  0  0  0  0  0  0  0  0
    2.6106   -2.4087    1.2613 H   0  0  0  0  0  0  0  0  0  0  0  0
    3.2374   -2.1929   -0.3856 H   0  0  0  0  0  0  0  0  0  0  0  0
    2.9701   -0.5573    3.0105 H   0  0  0  0  0  0  0  0  0  0  0  0
    4.6652    1.0296    3.8733 H   0  0  0  0  0  0  0  0  0  0  0  0
    6.6729    1.0248    0.1523 H   0  0  0  0  0  0  0  0  0  0  0  0
    5.0197   -0.5603   -0.7882 H   0  0  0  0  0  0  0  0  0  0  0  0
   -2.6962   -1.7485   -0.1927 H   0  0  0  0  0  0  0  0  0  0  0  0
   -1.8440   -0.3426    0.5578 H   0  0  0  0  0  0  0  0  0  0  0  0
   -3.8001   -0.8807    1.9145 H   0  0  0  0  0  0  0  0  0  0  0  0
   -4.8714   -0.9074    0.4738 H   0  0  0  0  0  0  0  0  0  0  0  0
   -3.4756    1.5080    1.7680 H   0  0  0  0  0  0  0  0  0  0  0  0
   -5.2310    1.2110    1.5933 H   0  0  0  0  0  0  0  0  0  0  0  0
   -3.4336    2.6299   -0.2050 H   0  0  0  0  0  0  0  0  0  0  0  0
   -5.2030    2.4081   -0.3616 H   0  0  0  0  0  0  0  0  0  0  0  0
   -3.8446    1.6415   -2.3489 H   0  0  0  0  0  0  0  0  0  0  0  0
   -4.9199    0.3702   -1.6740 H   0  0  0  0  0  0  0  0  0  0  0  0
  1  2  1  0
  2  3  1  0
  3  4  1  0
  4  5  1  0
  5  6  1  0
  6  7  1  0
  7  8  2  0
  8  9  1  0
  9 10  2  0
 10 11  1  0
 11 12  2  0
  2 13  1  0
 13 14  2  0
 13 15  1  0
 15 16  1  0
 16 17  1  0
 17 18  1  0
 18 19  1  0
 19 20  1  0
 12  7  1  0
 20 15  1  0
  1 21  1  0
  1 22  1  0
  2 23  1  1
  3 24  1  0
  3 25  1  0
  4 26  1  0
  4 27  1  0
  5 28  1  0
  6 29  1  0
  6 30  1  0
  8 31  1  0
  9 32  1  0
 11 33  1  0
 12 34  1  0
 16 35  1  0
 16 36  1  0
 17 37  1  0
 17 38  1  0
 18 39  1  0
 18 40  1  0
 19 41  1  0
 19 42  1  0
 20 43  1  0
 20 44  1  0
M  END
$$$$
