
     RDKit          3D

 51 50  0  0  0  0  0  0  0  0999 V2000
    5.5346    2.3270   -1.1002 C   0  0  0  0  0  0  0  0  0  0  0  0
    4.2779    1.5843   -0.7557 C   0  0  0  0  0  0  0  0  0  0  0  0
    3.5047    1.9770    0.3479 C   0  0  0  0  0  0  0  0  0  0  0  0
    2.3143    1.3085    0.6478 C   0  0  0  0  0  0  0  0  0  0  0  0
    1.8745    0.2527   -0.1643 C   0  0  0  0  0  0  0  0  0  0  0  0
    0.6206   -0.4674    0.1611 C   0  0  0  0  0  0  0  0  0  0  0  0
   -0.6368    0.0730   -0.2242 C   0  0  0  0  0  0  0  0  0  0  0  0
   -0.7100    1.3919   -0.9858 C   0  0  0  0  0  0  0  0  0  0  0  0
   -0.6682    1.1725   -2.4302 N   0  0  0  0  0  0  0  0  0  0  0  0
   -1.8057   -0.6873    0.0402 C   0  0  0  0  0  0  0  0  0  0  0  0
   -3.2054   -0.2400   -0.3226 C   0  0  0  0  0  0  0  0  0  0  0  0
   -3.9989    0.2288    0.9167 C   0  0  0  0  0  0  0  0  0  0  0  0
   -3.4242    1.5230    1.5091 C   0  0  0  0  0  0  0  0  0  0  0  0
   -5.4762    0.4295    0.5566 C   0  0  0  0  0  0  0  0  0  0  0  0
   -1.6962   -1.8808    0.6762 N   0  0  0  0  0  0  0  0  0  0  0  0
   -0.5162   -2.4155    1.0722 C   0  0  0  0  0  0  0  0  0  0  0  0
   -0.5502   -3.7379    1.7840 C   0  0  0  0  0  0  0  0  0  0  0  0
    0.6861   -1.7256    0.8124 C   0  0  0  0  0  0  0  0  0  0  0  0
    1.9905   -2.3101    1.2190 C   0  0  0  0  0  0  0  0  0  0  0  0
    2.8591   -1.5956    1.7879 O   0  0  0  0  0  0  0  0  0  0  0  0
    2.2647   -3.6523    0.9735 O   0  0  0  0  0  0  0  0  0  0  0  0
    2.6412   -0.1351   -1.2723 C   0  0  0  0  0  0  0  0  0  0  0  0
    3.8316    0.5335   -1.5720 C   0  0  0  0  0  0  0  0  0  0  0  0
    0.6878    0.0000    0.0000 Cl  0  0  0  0  0  0  0  0  0  0  0  0
    0.6878    0.0000    0.0000 Cl  0  0  0  0  0  0  0  0  0  0  0  0
    5.2900    3.1719   -1.7772 H   0  0  0  0  0  0  0  0  0  0  0  0
    6.2605    1.6554   -1.6062 H   0  0  0  0  0  0  0  0  0  0  0  0
    6.0181    2.7257   -0.1829 H   0  0  0  0  0  0  0  0  0  0  0  0
    3.8242    2.7986    0.9769 H   0  0  0  0  0  0  0  0  0  0  0  0
    1.7319    1.6145    1.5082 H   0  0  0  0  0  0  0  0  0  0  0  0
    0.1172    2.0725   -0.7028 H   0  0  0  0  0  0  0  0  0  0  0  0
   -1.6207    1.9632   -0.7243 H   0  0  0  0  0  0  0  0  0  0  0  0
   -1.4409    0.5227   -2.7018 H   0  0  0  0  0  0  0  0  0  0  0  0
    0.2337    0.7032   -2.6733 H   0  0  0  0  0  0  0  0  0  0  0  0
   -3.7245   -1.1189   -0.7645 H   0  0  0  0  0  0  0  0  0  0  0  0
   -3.2268    0.5354   -1.1128 H   0  0  0  0  0  0  0  0  0  0  0  0
   -3.9481   -0.5630    1.6972 H   0  0  0  0  0  0  0  0  0  0  0  0
   -2.3653    1.3788    1.8101 H   0  0  0  0  0  0  0  0  0  0  0  0
   -3.9962    1.8134    2.4160 H   0  0  0  0  0  0  0  0  0  0  0  0
   -3.4841    2.3525    0.7727 H   0  0  0  0  0  0  0  0  0  0  0  0
   -5.9123   -0.5204    0.1802 H   0  0  0  0  0  0  0  0  0  0  0  0
   -5.5862    1.2101   -0.2269 H   0  0  0  0  0  0  0  0  0  0  0  0
   -6.0524    0.7386    1.4548 H   0  0  0  0  0  0  0  0  0  0  0  0
   -0.2018   -4.5412    1.1021 H   0  0  0  0  0  0  0  0  0  0  0  0
   -1.5862   -3.9783    2.1049 H   0  0  0  0  0  0  0  0  0  0  0  0
    0.0889   -3.7078    2.6916 H   0  0  0  0  0  0  0  0  0  0  0  0
    3.1503   -4.0608    1.2473 H   0  0  0  0  0  0  0  0  0  0  0  0
    2.3130   -0.9507   -1.9049 H   0  0  0  0  0  0  0  0  0  0  0  0
    4.4058    0.2305   -2.4388 H   0  0  0  0  0  0  0  0  0  0  0  0
   -0.6878    0.0000    0.0000 H   0  0  0  0  0  0  0  0  0  0  0  0
   -0.6878    0.0000    0.0000 H   0  0  0  0  0  0  0  0  0  0  0  0
  1  2  1  0
  2  3  2  0
  3  4  1  0
  4  5  2  0
  5  6  1  0
  6  7  2  0
  7  8  1  0
  8  9  1  0
  7 10  1  0
 10 11  1  0
 11 12  1  0
 12 13  1  0
 12 14  1  0
 10 15  2  0
 15 16  1  0
 16 17  1  0
 16 18  2  0
 18 19  1  0
 19 20  2  0
 19 21  1  0
  5 22  1  0
 22 23  2  0
 23  2  1  0
 18  6  1  0
  1 26  1  0
  1 27  1  0
  1 28  1  0
  3 29  1  0
  4 30  1  0
  8 31  1  0
  8 32  1  0
  9 33  1  0
  9 34  1  0
 11 35  1  0
 11 36  1  0
 12 37  1  0
 13 38  1  0
 13 39  1  0
 13 40  1  0
 14 41  1  0
 14 42  1  0
 14 43  1  0
 17 44  1  0
 17 45  1  0
 17 46  1  0
 21 47  1  0
 22 48  1  0
 23 49  1  0
 24 50  1  0
 25 51  1  0
M  END
$$$$
