
     RDKit          3D

 48 51  0  0  0  0  0  0  0  0999 V2000
   -3.1819    0.7997   -2.6903 N   0  0  0  0  0  0  0  0  0  0  0  0
   -2.5672    0.9456   -1.3646 C   0  0  2  0  0  0  0  0  0  0  0  0
   -1.0698    0.7475   -1.4118 C   0  0  0  0  0  0  0  0  0  0  0  0
   -0.5517   -0.0398   -2.2485 O   0  0  0  0  0  0  0  0  0  0  0  0
   -0.2343    1.4016   -0.4572 N   0  0  0  0  0  0  0  0  0  0  0  0
   -0.3821    2.3797    0.6371 C   0  0  0  0  0  0  0  0  0  0  0  0
    1.0643    2.4212    1.0116 C   0  0  0  0  0  0  0  0  0  0  0  0
    1.1987    1.4313   -0.1056 C   0  0  1  0  0  0  0  0  0  0  0  0
    1.6914    0.0823    0.3602 C   0  0  0  0  0  0  0  0  0  0  0  0
    0.8716   -0.7759    0.7871 O   0  0  0  0  0  0  0  0  0  0  0  0
    3.1294   -0.2226    0.3728 C   0  0  0  0  0  0  0  0  0  0  0  0
    4.0835    0.6591   -0.0183 N   0  0  0  0  0  0  0  0  0  0  0  0
    5.3237    0.1203    0.0997 C   0  0  0  0  0  0  0  0  0  0  0  0
    6.5070    0.7851   -0.2263 C   0  0  0  0  0  0  0  0  0  0  0  0
    7.7289    0.1110   -0.0562 C   0  0  0  0  0  0  0  0  0  0  0  0
    7.7535   -1.2102    0.4343 C   0  0  0  0  0  0  0  0  0  0  0  0
    6.5566   -1.8687    0.7590 C   0  0  0  0  0  0  0  0  0  0  0  0
    5.3603   -1.1787    0.5812 C   0  0  0  0  0  0  0  0  0  0  0  0
    3.7935   -1.6986    0.8795 S   0  0  0  0  0  0  0  0  0  0  0  0
   -3.2298    0.0158   -0.3125 C   0  0  0  0  0  0  0  0  0  0  0  0
   -2.9022   -1.4916   -0.5141 C   0  0  0  0  0  0  0  0  0  0  0  0
   -3.9509   -2.4361    0.1084 C   0  0  0  0  0  0  0  0  0  0  0  0
   -4.6332   -1.8058    1.3259 C   0  0  0  0  0  0  0  0  0  0  0  0
   -5.3839   -0.5121    0.9514 C   0  0  0  0  0  0  0  0  0  0  0  0
   -4.7528    0.2446   -0.2359 C   0  0  0  0  0  0  0  0  0  0  0  0
   -2.9251   -0.1179   -3.1182 H   0  0  0  0  0  0  0  0  0  0  0  0
   -2.8007    1.5464   -3.3162 H   0  0  0  0  0  0  0  0  0  0  0  0
   -2.7467    1.9928   -1.0322 H   0  0  0  0  0  0  0  0  0  0  0  0
   -1.0224    1.9722    1.4505 H   0  0  0  0  0  0  0  0  0  0  0  0
   -0.7529    3.3551    0.2508 H   0  0  0  0  0  0  0  0  0  0  0  0
    1.2592    2.0132    2.0285 H   0  0  0  0  0  0  0  0  0  0  0  0
    1.5428    3.3987    0.7857 H   0  0  0  0  0  0  0  0  0  0  0  0
    1.7981    1.8265   -0.9569 H   0  0  0  0  0  0  0  0  0  0  0  0
    6.4867    1.7999   -0.6028 H   0  0  0  0  0  0  0  0  0  0  0  0
    8.6569    0.6100   -0.3036 H   0  0  0  0  0  0  0  0  0  0  0  0
    8.6996   -1.7199    0.5615 H   0  0  0  0  0  0  0  0  0  0  0  0
    6.5650   -2.8830    1.1364 H   0  0  0  0  0  0  0  0  0  0  0  0
   -2.8145    0.3117    0.6783 H   0  0  0  0  0  0  0  0  0  0  0  0
   -2.8164   -1.7461   -1.5899 H   0  0  0  0  0  0  0  0  0  0  0  0
   -1.9118   -1.7012   -0.0535 H   0  0  0  0  0  0  0  0  0  0  0  0
   -4.7263   -2.6816   -0.6506 H   0  0  0  0  0  0  0  0  0  0  0  0
   -3.4618   -3.3884    0.4074 H   0  0  0  0  0  0  0  0  0  0  0  0
   -5.3464   -2.5328    1.7710 H   0  0  0  0  0  0  0  0  0  0  0  0
   -3.8616   -1.5797    2.0948 H   0  0  0  0  0  0  0  0  0  0  0  0
   -6.4377   -0.7582    0.6961 H   0  0  0  0  0  0  0  0  0  0  0  0
   -5.4076    0.1535    1.8418 H   0  0  0  0  0  0  0  0  0  0  0  0
   -5.2249   -0.1051   -1.1807 H   0  0  0  0  0  0  0  0  0  0  0  0
   -4.9738    1.3293   -0.1307 H   0  0  0  0  0  0  0  0  0  0  0  0
  1  2  1  0
  2  3  1  0
  3  4  2  0
  3  5  1  0
  5  6  1  0
  6  7  1  0
  7  8  1  0
  8  9  1  0
  9 10  2  0
  9 11  1  0
 11 12  2  0
 12 13  1  0
 13 14  2  0
 14 15  1  0
 15 16  2  0
 16 17  1  0
 17 18  2  0
 18 19  1  0
  2 20  1  0
 20 21  1  0
 21 22  1  0
 22 23  1  0
 23 24  1  0
 24 25  1  0
  8  5  1  0
 19 11  1  0
 25 20  1  0
 18 13  1  0
  1 26  1  0
  1 27  1  0
  2 28  1  1
  6 29  1  0
  6 30  1  0
  7 31  1  0
  7 32  1  0
  8 33  1  6
 14 34  1  0
 15 35  1  0
 16 36  1  0
 17 37  1  0
 20 38  1  0
 21 39  1  0
 21 40  1  0
 22 41  1  0
 22 42  1  0
 23 43  1  0
 23 44  1  0
 24 45  1  0
 24 46  1  0
 25 47  1  0
 25 48  1  0
M  END
$$$$
