
     RDKit          3D

 47 48  0  0  0  0  0  0  0  0999 V2000
    5.5355    2.3302   -1.0899 C   0  0  0  0  0  0  0  0  0  0  0  0
    4.2786    1.5866   -0.7480 C   0  0  0  0  0  0  0  0  0  0  0  0
    3.5038    1.9777    0.3550 C   0  0  0  0  0  0  0  0  0  0  0  0
    2.3132    1.3085    0.6525 C   0  0  0  0  0  0  0  0  0  0  0  0
    1.8748    0.2536   -0.1615 C   0  0  0  0  0  0  0  0  0  0  0  0
    0.6206   -0.4673    0.1614 C   0  0  0  0  0  0  0  0  0  0  0  0
   -0.6364    0.0732   -0.2250 C   0  0  0  0  0  0  0  0  0  0  0  0
   -0.7090    1.3930   -0.9850 C   0  0  0  0  0  0  0  0  0  0  0  0
   -0.6652    1.1755   -2.4296 N   0  0  0  0  0  0  0  0  0  0  0  0
   -1.8054   -0.6877    0.0369 C   0  0  0  0  0  0  0  0  0  0  0  0
   -3.2048   -0.2404   -0.3271 C   0  0  0  0  0  0  0  0  0  0  0  0
   -4.0000    0.2266    0.9117 C   0  0  0  0  0  0  0  0  0  0  0  0
   -3.4265    1.5202    1.5065 C   0  0  0  0  0  0  0  0  0  0  0  0
   -5.4769    0.4273    0.5499 C   0  0  0  0  0  0  0  0  0  0  0  0
   -1.6964   -1.8820    0.6716 N   0  0  0  0  0  0  0  0  0  0  0  0
   -0.5167   -2.4169    1.0685 C   0  0  0  0  0  0  0  0  0  0  0  0
   -0.5513   -3.7401    1.7785 C   0  0  0  0  0  0  0  0  0  0  0  0
    0.6857   -1.7263    0.8111 C   0  0  0  0  0  0  0  0  0  0  0  0
    1.9897   -2.3109    1.2187 C   0  0  0  0  0  0  0  0  0  0  0  0
    2.8574   -1.5969    1.7897 O   0  0  0  0  0  0  0  0  0  0  0  0
    2.2647   -3.6527    0.9719 O   0  0  0  0  0  0  0  0  0  0  0  0
    2.6431   -0.1325   -1.2689 C   0  0  0  0  0  0  0  0  0  0  0  0
    3.8336    0.5367   -1.5663 C   0  0  0  0  0  0  0  0  0  0  0  0
    5.2915    3.1758   -1.7663 H   0  0  0  0  0  0  0  0  0  0  0  0
    6.2623    1.6594   -1.5957 H   0  0  0  0  0  0  0  0  0  0  0  0
    6.0176    2.7280   -0.1715 H   0  0  0  0  0  0  0  0  0  0  0  0
    3.8222    2.7986    0.9855 H   0  0  0  0  0  0  0  0  0  0  0  0
    1.7296    1.6132    1.5125 H   0  0  0  0  0  0  0  0  0  0  0  0
    0.1176    2.0736   -0.7000 H   0  0  0  0  0  0  0  0  0  0  0  0
   -1.6202    1.9638   -0.7240 H   0  0  0  0  0  0  0  0  0  0  0  0
   -1.4373    0.5258   -2.7031 H   0  0  0  0  0  0  0  0  0  0  0  0
    0.2372    0.7068   -2.6721 H   0  0  0  0  0  0  0  0  0  0  0  0
   -3.7231   -1.1189   -0.7708 H   0  0  0  0  0  0  0  0  0  0  0  0
   -3.2253    0.5360   -1.1164 H   0  0  0  0  0  0  0  0  0  0  0  0
   -3.9500   -0.5662    1.6913 H   0  0  0  0  0  0  0  0  0  0  0  0
   -2.3680    1.3759    1.8087 H   0  0  0  0  0  0  0  0  0  0  0  0
   -3.9998    1.8093    2.4130 H   0  0  0  0  0  0  0  0  0  0  0  0
   -3.4857    2.3506    0.7711 H   0  0  0  0  0  0  0  0  0  0  0  0
   -5.9122   -0.5223    0.1718 H   0  0  0  0  0  0  0  0  0  0  0  0
   -5.5861    1.2088   -0.2327 H   0  0  0  0  0  0  0  0  0  0  0  0
   -6.0544    0.7351    1.4477 H   0  0  0  0  0  0  0  0  0  0  0  0
   -0.2018   -4.5425    1.0962 H   0  0  0  0  0  0  0  0  0  0  0  0
   -1.5876   -3.9813    2.0978 H   0  0  0  0  0  0  0  0  0  0  0  0
    0.0865   -3.7110    2.6870 H   0  0  0  0  0  0  0  0  0  0  0  0
    3.1500   -4.0613    1.2464 H   0  0  0  0  0  0  0  0  0  0  0  0
    2.3159   -0.9475   -1.9030 H   0  0  0  0  0  0  0  0  0  0  0  0
    4.4091    0.2350   -2.4327 H   0  0  0  0  0  0  0  0  0  0  0  0
  1  2  1  0
  2  3  2  0
  3  4  1  0
  4  5  2  0
  5  6  1  0
  6  7  2  0
  7  8  1  0
  8  9  1  0
  7 10  1  0
 10 11  1  0
 11 12  1  0
 12 13  1  0
 12 14  1  0
 10 15  2  0
 15 16  1  0
 16 17  1  0
 16 18  2  0
 18 19  1  0
 19 20  2  0
 19 21  1  0
  5 22  1  0
 22 23  2  0
 23  2  1  0
 18  6  1  0
  1 24  1  0
  1 25  1  0
  1 26  1  0
  3 27  1  0
  4 28  1  0
  8 29  1  0
  8 30  1  0
  9 31  1  0
  9 32  1  0
 11 33  1  0
 11 34  1  0
 12 35  1  0
 13 36  1  0
 13 37  1  0
 13 38  1  0
 14 39  1  0
 14 40  1  0
 14 41  1  0
 17 42  1  0
 17 43  1  0
 17 44  1  0
 21 45  1  0
 22 46  1  0
 23 47  1  0
M  END
$$$$
