
     RDKit          3D

 46 49  0  0  0  0  0  0  0  0999 V2000
   -4.1829   -2.8325   -0.0322 N   0  0  0  0  0  0  0  0  0  0  0  0
   -3.6839   -1.7929    0.0653 C   0  0  0  0  0  0  0  0  0  0  0  0
   -3.0475   -0.4705    0.1886 C   0  0  2  0  0  0  0  0  0  0  0  0
   -4.0025    0.5391    0.8316 C   0  0  0  0  0  0  0  0  0  0  0  0
   -3.8591    1.8185    0.0117 C   0  0  2  0  0  0  0  0  0  0  0  0
   -5.0758    2.4661   -0.1225 F   0  0  0  0  0  0  0  0  0  0  0  0
   -3.3181    1.3839   -1.3433 C   0  0  0  0  0  0  0  0  0  0  0  0
   -2.7286    0.0736   -1.1264 N   0  0  0  0  0  0  0  0  0  0  0  0
   -1.8330   -0.5245   -2.0849 C   0  0  0  0  0  0  0  0  0  0  0  0
   -1.8422   -0.1171   -3.2781 O   0  0  0  0  0  0  0  0  0  0  0  0
   -0.8279   -1.5809   -1.6924 C   0  0  0  0  0  0  0  0  0  0  0  0
    0.5364   -1.0331   -1.5997 N   0  0  0  0  0  0  0  0  0  0  0  0
    0.7302   -0.1419   -0.4341 C   0  0  0  0  0  0  0  0  0  0  0  0
    0.9707   -0.9610    0.8684 C   0  0  0  0  0  0  0  0  0  0  0  0
    2.2763   -1.7824    0.7508 C   0  0  0  0  0  0  0  0  0  0  0  0
    3.4722   -0.8307    0.5314 C   0  0  0  0  0  0  0  0  0  0  0  0
    3.5827    0.1396    1.7286 C   0  0  0  0  0  0  0  0  0  0  0  0
    2.2822    0.9650    1.8473 C   0  0  0  0  0  0  0  0  0  0  0  0
    1.0875    0.0104    2.0656 C   0  0  0  0  0  0  0  0  0  0  0  0
    2.0659    1.7711    0.5475 C   0  0  0  0  0  0  0  0  0  0  0  0
    1.9495    0.8022   -0.6519 C   0  0  0  0  0  0  0  0  0  0  0  0
    3.2543   -0.0220   -0.7656 C   0  0  0  0  0  0  0  0  0  0  0  0
   -2.1237   -0.5531    0.7989 H   0  0  0  0  0  0  0  0  0  0  0  0
   -3.7377    0.7180    1.8966 H   0  0  0  0  0  0  0  0  0  0  0  0
   -5.0598    0.1913    0.7817 H   0  0  0  0  0  0  0  0  0  0  0  0
   -3.1297    2.4976    0.5062 H   0  0  0  0  0  0  0  0  0  0  0  0
   -4.1345    1.3024   -2.0933 H   0  0  0  0  0  0  0  0  0  0  0  0
   -2.5487    2.1041   -1.6986 H   0  0  0  0  0  0  0  0  0  0  0  0
   -0.8333   -2.3686   -2.4758 H   0  0  0  0  0  0  0  0  0  0  0  0
   -1.1097   -2.0956   -0.7553 H   0  0  0  0  0  0  0  0  0  0  0  0
    0.7355   -0.5105   -2.4856 H   0  0  0  0  0  0  0  0  0  0  0  0
   -0.1658    0.5038   -0.2991 H   0  0  0  0  0  0  0  0  0  0  0  0
    0.1242   -1.6512    1.0627 H   0  0  0  0  0  0  0  0  0  0  0  0
    2.2030   -2.5028   -0.0927 H   0  0  0  0  0  0  0  0  0  0  0  0
    2.4329   -2.3783    1.6768 H   0  0  0  0  0  0  0  0  0  0  0  0
    4.4086   -1.4238    0.4466 H   0  0  0  0  0  0  0  0  0  0  0  0
    3.7569   -0.4322    2.6665 H   0  0  0  0  0  0  0  0  0  0  0  0
    4.4523    0.8187    1.5886 H   0  0  0  0  0  0  0  0  0  0  0  0
    2.3623    1.6630    2.7087 H   0  0  0  0  0  0  0  0  0  0  0  0
    0.1477    0.5957    2.1732 H   0  0  0  0  0  0  0  0  0  0  0  0
    1.2281   -0.5633    3.0080 H   0  0  0  0  0  0  0  0  0  0  0  0
    1.1431    2.3865    0.6314 H   0  0  0  0  0  0  0  0  0  0  0  0
    2.9156    2.4713    0.3896 H   0  0  0  0  0  0  0  0  0  0  0  0
    1.8059    1.3984   -1.5796 H   0  0  0  0  0  0  0  0  0  0  0  0
    3.2033   -0.7092   -1.6379 H   0  0  0  0  0  0  0  0  0  0  0  0
    4.1175    0.6582   -0.9366 H   0  0  0  0  0  0  0  0  0  0  0  0
  1  2  3  0
  2  3  1  0
  3  4  1  0
  4  5  1  0
  5  6  1  0
  5  7  1  0
  7  8  1  0
  8  9  1  0
  9 10  2  0
  9 11  1  0
 11 12  1  0
 12 13  1  0
 13 14  1  0
 14 15  1  0
 15 16  1  0
 16 17  1  0
 17 18  1  0
 18 19  1  0
 18 20  1  0
 20 21  1  0
 21 22  1  0
  8  3  1  0
 21 13  1  0
 19 14  1  0
 22 16  1  0
  3 23  1  1
  4 24  1  0
  4 25  1  0
  5 26  1  1
  7 27  1  0
  7 28  1  0
 11 29  1  0
 11 30  1  0
 12 31  1  0
 13 32  1  0
 14 33  1  0
 15 34  1  0
 15 35  1  0
 16 36  1  0
 17 37  1  0
 17 38  1  0
 18 39  1  0
 19 40  1  0
 19 41  1  0
 20 42  1  0
 20 43  1  0
 21 44  1  0
 22 45  1  0
 22 46  1  0
M  END
$$$$
