
     RDKit          3D

 50 52  0  0  0  0  0  0  0  0999 V2000
    6.2909    4.6045    3.3412 N   0  0  0  0  0  0  0  0  0  0  0  0
    5.9048    3.6503    2.8125 C   0  0  0  0  0  0  0  0  0  0  0  0
    5.4246    2.4633    2.1548 C   0  0  0  0  0  0  0  0  0  0  0  0
    6.2130    1.3061    2.1311 C   0  0  0  0  0  0  0  0  0  0  0  0
    5.7463    0.1523    1.4937 C   0  0  0  0  0  0  0  0  0  0  0  0
    4.4903    0.1489    0.8656 C   0  0  0  0  0  0  0  0  0  0  0  0
    3.9715   -1.1025    0.2101 C   0  0  0  0  0  0  0  0  0  0  0  0
    3.1763   -1.9462    1.2161 C   0  0  0  0  0  0  0  0  0  0  0  0
    2.6564   -3.2506    0.5983 C   0  0  0  0  0  0  0  0  0  0  0  0
    1.6118   -2.9924   -0.4431 C   0  0  0  0  0  0  0  0  0  0  0  0
    0.3782   -2.5217   -0.1616 N   0  0  0  0  0  0  0  0  0  0  0  0
   -0.3678   -2.3290   -1.2845 C   0  0  0  0  0  0  0  0  0  0  0  0
   -1.7441   -1.8018   -1.1982 C   0  0  0  0  0  0  0  0  0  0  0  0
   -2.1767   -1.4186   -0.0773 O   0  0  0  0  0  0  0  0  0  0  0  0
   -2.5943   -1.7209   -2.3545 N   0  0  0  0  0  0  0  0  0  0  0  0
   -3.9042   -1.0752   -2.3097 C   0  0  0  0  0  0  0  0  0  0  0  0
   -3.7392    0.4138   -2.1729 C   0  0  0  0  0  0  0  0  0  0  0  0
   -3.1559    1.0391   -3.0996 O   0  0  0  0  0  0  0  0  0  0  0  0
   -4.1900    1.1343   -1.0081 N   0  0  0  0  0  0  0  0  0  0  0  0
   -3.6788    2.4542   -0.6774 C   0  0  0  0  0  0  0  0  0  0  0  0
   -4.1142    2.7136    0.7596 C   0  0  0  0  0  0  0  0  0  0  0  0
   -4.4987    4.0329    0.9316 F   0  0  0  0  0  0  0  0  0  0  0  0
   -3.0745    2.4201    1.6274 F   0  0  0  0  0  0  0  0  0  0  0  0
   -5.2821    1.7624    1.0129 C   0  0  0  0  0  0  0  0  0  0  0  0
   -5.1105    0.6247    0.0021 C   0  0  1  0  0  0  0  0  0  0  0  0
   -6.4029    0.2600   -0.6037 C   0  0  0  0  0  0  0  0  0  0  0  0
   -7.4175   -0.0273   -1.0803 N   0  0  0  0  0  0  0  0  0  0  0  0
    0.2868   -2.6399   -2.4789 C   0  0  0  0  0  0  0  0  0  0  0  0
    1.8361   -3.1711   -2.0980 S   0  0  0  0  0  0  0  0  0  0  0  0
    3.6977    1.3078    0.9044 C   0  0  0  0  0  0  0  0  0  0  0  0
    4.1653    2.4610    1.5421 C   0  0  0  0  0  0  0  0  0  0  0  0
    7.1859    1.2948    2.6077 H   0  0  0  0  0  0  0  0  0  0  0  0
    6.3624   -0.7384    1.4911 H   0  0  0  0  0  0  0  0  0  0  0  0
    4.8204   -1.6985   -0.1913 H   0  0  0  0  0  0  0  0  0  0  0  0
    3.3248   -0.8266   -0.6511 H   0  0  0  0  0  0  0  0  0  0  0  0
    3.8370   -2.2055    2.0724 H   0  0  0  0  0  0  0  0  0  0  0  0
    2.3220   -1.3551    1.6145 H   0  0  0  0  0  0  0  0  0  0  0  0
    2.2067   -3.8744    1.4002 H   0  0  0  0  0  0  0  0  0  0  0  0
    3.4995   -3.8260    0.1583 H   0  0  0  0  0  0  0  0  0  0  0  0
   -2.2998   -2.1566   -3.2556 H   0  0  0  0  0  0  0  0  0  0  0  0
   -4.4487   -1.2818   -3.2561 H   0  0  0  0  0  0  0  0  0  0  0  0
   -4.5015   -1.5156   -1.4871 H   0  0  0  0  0  0  0  0  0  0  0  0
   -2.5701    2.4765   -0.7616 H   0  0  0  0  0  0  0  0  0  0  0  0
   -4.1213    3.2041   -1.3687 H   0  0  0  0  0  0  0  0  0  0  0  0
   -6.2376    2.3116    0.8487 H   0  0  0  0  0  0  0  0  0  0  0  0
   -5.2724    1.3774    2.0561 H   0  0  0  0  0  0  0  0  0  0  0  0
   -4.6656   -0.2605    0.5050 H   0  0  0  0  0  0  0  0  0  0  0  0
   -0.1028   -2.5426   -3.4819 H   0  0  0  0  0  0  0  0  0  0  0  0
    2.7180    1.3168    0.4427 H   0  0  0  0  0  0  0  0  0  0  0  0
    3.5442    3.3486    1.5602 H   0  0  0  0  0  0  0  0  0  0  0  0
  1  2  3  0
  2  3  1  0
  3  4  2  0
  4  5  1  0
  5  6  2  0
  6  7  1  0
  7  8  1  0
  8  9  1  0
  9 10  1  0
 10 11  2  0
 11 12  1  0
 12 13  1  0
 13 14  2  0
 13 15  1  0
 15 16  1  0
 16 17  1  0
 17 18  2  0
 17 19  1  0
 19 20  1  0
 20 21  1  0
 21 22  1  0
 21 23  1  0
 21 24  1  0
 24 25  1  0
 25 26  1  0
 26 27  3  0
 12 28  2  0
 28 29  1  0
  6 30  1  0
 30 31  2  0
 31  3  1  0
 29 10  1  0
 25 19  1  0
  4 32  1  0
  5 33  1  0
  7 34  1  0
  7 35  1  0
  8 36  1  0
  8 37  1  0
  9 38  1  0
  9 39  1  0
 15 40  1  0
 16 41  1  0
 16 42  1  0
 20 43  1  0
 20 44  1  0
 24 45  1  0
 24 46  1  0
 25 47  1  1
 28 48  1  0
 30 49  1  0
 31 50  1  0
M  END
$$$$
