
     RDKit          3D

 42 43  0  0  0  0  0  0  0  0999 V2000
    0.9022   -1.9552   -1.0001 C   0  0  0  0  0  0  0  0  0  0  0  0
    1.4803   -1.1766    0.2098 C   0  0  0  0  0  0  0  0  0  0  0  0
    1.9136   -2.2402    1.2446 C   0  0  0  0  0  0  0  0  0  0  0  0
    0.3950   -0.3560    0.8084 N   0  0  0  0  0  0  0  0  0  0  0  0
    0.0412    0.8506    0.0421 C   0  0  0  0  0  0  0  0  0  0  0  0
   -1.2379    1.4313    0.5739 C   0  0  0  0  0  0  0  0  0  0  0  0
   -1.1721    2.4173    1.3575 O   0  0  0  0  0  0  0  0  0  0  0  0
   -2.5258    0.8717    0.2364 N   0  0  0  0  0  0  0  0  0  0  0  0
   -2.7136   -0.4092   -0.4347 C   0  0  2  0  0  0  0  0  0  0  0  0
   -2.5212   -0.2508   -1.8852 C   0  0  0  0  0  0  0  0  0  0  0  0
   -2.3684   -0.1261   -3.0255 N   0  0  0  0  0  0  0  0  0  0  0  0
   -4.1483   -0.8273   -0.1157 C   0  0  0  0  0  0  0  0  0  0  0  0
   -4.8736    0.4566    0.2731 C   0  0  0  0  0  0  0  0  0  0  0  0
   -3.7791    1.4156    0.7471 C   0  0  2  0  0  0  0  0  0  0  0  0
   -4.0045    2.7762    0.2311 C   0  0  0  0  0  0  0  0  0  0  0  0
   -4.1808    3.8456   -0.1746 N   0  0  0  0  0  0  0  0  0  0  0  0
    2.7165   -0.3203   -0.1426 C   0  0  0  0  0  0  0  0  0  0  0  0
    3.3159   -0.3355   -1.4246 C   0  0  0  0  0  0  0  0  0  0  0  0
    4.4405    0.4490   -1.6978 C   0  0  0  0  0  0  0  0  0  0  0  0
    4.9944    1.2546   -0.7037 C   0  0  0  0  0  0  0  0  0  0  0  0
    4.4280    1.2756    0.5697 C   0  0  0  0  0  0  0  0  0  0  0  0
    3.3042    0.4945    0.8513 C   0  0  0  0  0  0  0  0  0  0  0  0
   -0.0227   -2.4950   -0.7040 H   0  0  0  0  0  0  0  0  0  0  0  0
    1.6278   -2.7118   -1.3700 H   0  0  0  0  0  0  0  0  0  0  0  0
    0.6458   -1.2854   -1.8452 H   0  0  0  0  0  0  0  0  0  0  0  0
    2.7233   -2.8818    0.8336 H   0  0  0  0  0  0  0  0  0  0  0  0
    2.2891   -1.7692    2.1775 H   0  0  0  0  0  0  0  0  0  0  0  0
    1.0541   -2.8891    1.5203 H   0  0  0  0  0  0  0  0  0  0  0  0
    0.6572   -0.0559    1.7770 H   0  0  0  0  0  0  0  0  0  0  0  0
    0.8458    1.6135    0.1289 H   0  0  0  0  0  0  0  0  0  0  0  0
   -0.0871    0.6315   -1.0343 H   0  0  0  0  0  0  0  0  0  0  0  0
   -2.0083   -1.1705   -0.0417 H   0  0  0  0  0  0  0  0  0  0  0  0
   -4.1409   -1.5159    0.7582 H   0  0  0  0  0  0  0  0  0  0  0  0
   -4.6549   -1.3423   -0.9626 H   0  0  0  0  0  0  0  0  0  0  0  0
   -5.6194    0.2680    1.0759 H   0  0  0  0  0  0  0  0  0  0  0  0
   -5.4035    0.8509   -0.6239 H   0  0  0  0  0  0  0  0  0  0  0  0
   -3.7492    1.4390    1.8584 H   0  0  0  0  0  0  0  0  0  0  0  0
    2.9318   -0.9469   -2.2273 H   0  0  0  0  0  0  0  0  0  0  0  0
    4.8853    0.4296   -2.6845 H   0  0  0  0  0  0  0  0  0  0  0  0
    5.8654    1.8599   -0.9195 H   0  0  0  0  0  0  0  0  0  0  0  0
    4.8610    1.8975    1.3426 H   0  0  0  0  0  0  0  0  0  0  0  0
    2.8930    0.5326    1.8509 H   0  0  0  0  0  0  0  0  0  0  0  0
  1  2  1  0
  2  3  1  0
  2  4  1  0
  4  5  1  0
  5  6  1  0
  6  7  2  0
  6  8  1  0
  8  9  1  0
  9 10  1  0
 10 11  3  0
  9 12  1  0
 12 13  1  0
 13 14  1  0
 14 15  1  0
 15 16  3  0
  2 17  1  0
 17 18  2  0
 18 19  1  0
 19 20  2  0
 20 21  1  0
 21 22  2  0
 14  8  1  0
 22 17  1  0
  1 23  1  0
  1 24  1  0
  1 25  1  0
  3 26  1  0
  3 27  1  0
  3 28  1  0
  4 29  1  0
  5 30  1  0
  5 31  1  0
  9 32  1  1
 12 33  1  0
 12 34  1  0
 13 35  1  0
 13 36  1  0
 14 37  1  1
 18 38  1  0
 19 39  1  0
 20 40  1  0
 21 41  1  0
 22 42  1  0
M  END
$$$$
