
     RDKit          3D

 50 53  0  0  0  0  0  0  0  0999 V2000
   -2.7522   -3.8023    0.0713 C   0  0  0  0  0  0  0  0  0  0  0  0
   -3.3839   -2.5692   -0.2585 O   0  0  0  0  0  0  0  0  0  0  0  0
   -2.7729   -1.3055   -0.1801 C   0  0  0  0  0  0  0  0  0  0  0  0
   -1.4383   -1.1577    0.2452 C   0  0  0  0  0  0  0  0  0  0  0  0
   -0.8358    0.1141    0.3328 C   0  0  0  0  0  0  0  0  0  0  0  0
    0.5034    0.2926    0.7836 C   0  0  0  0  0  0  0  0  0  0  0  0
    1.0832    1.5793    0.7249 C   0  0  0  0  0  0  0  0  0  0  0  0
    0.3247    2.6777    0.3225 C   0  0  0  0  0  0  0  0  0  0  0  0
   -1.0051    2.5185   -0.0532 C   0  0  0  0  0  0  0  0  0  0  0  0
   -1.5907    1.2459   -0.0630 C   0  0  0  0  0  0  0  0  0  0  0  0
   -2.9195    1.0973   -0.4826 C   0  0  0  0  0  0  0  0  0  0  0  0
   -3.5250   -0.1691   -0.5350 C   0  0  0  0  0  0  0  0  0  0  0  0
   -4.8904   -0.3289   -0.9737 N   0  0  0  0  0  0  0  0  0  0  0  0
   -6.0353    0.9678   -1.1291 S   0  0  0  0  0  0  0  0  0  0  0  0
   -5.7966    1.8132   -2.6775 C   0  0  0  0  0  0  0  0  0  0  0  0
   -7.4238    0.3942   -1.1014 O   0  0  0  0  0  0  0  0  0  0  0  0
   -5.8913    1.9266    0.0194 O   0  0  0  0  0  0  0  0  0  0  0  0
    2.4288    1.7854    1.0600 O   0  0  0  0  0  0  0  0  0  0  0  0
    3.3136    0.7486    1.4931 C   0  0  2  0  0  0  0  0  0  0  0  0
    4.2326    0.2680    0.3787 C   0  0  0  0  0  0  0  0  0  0  0  0
    5.4976   -0.2401    0.7335 C   0  0  0  0  0  0  0  0  0  0  0  0
    6.3730   -0.7274   -0.2405 C   0  0  0  0  0  0  0  0  0  0  0  0
    7.5879   -1.2082    0.1224 F   0  0  0  0  0  0  0  0  0  0  0  0
    5.9953   -0.7236   -1.5841 C   0  0  0  0  0  0  0  0  0  0  0  0
    6.8427   -1.1975   -2.5309 F   0  0  0  0  0  0  0  0  0  0  0  0
    4.7407   -0.2363   -1.9533 C   0  0  0  0  0  0  0  0  0  0  0  0
    3.8574    0.2534   -0.9850 C   0  0  0  0  0  0  0  0  0  0  0  0
    2.6493    0.7055   -1.3968 F   0  0  0  0  0  0  0  0  0  0  0  0
    2.5354   -0.4215    2.1403 C   0  0  1  0  0  0  0  0  0  0  0  0
    2.0439   -0.0575    3.4740 N   0  0  0  0  0  0  0  0  0  0  0  0
    1.3604   -0.8681    1.2540 C   0  0  0  0  0  0  0  0  0  0  0  0
   -1.8761   -3.9717   -0.5896 H   0  0  0  0  0  0  0  0  0  0  0  0
   -3.4745   -4.6304   -0.0795 H   0  0  0  0  0  0  0  0  0  0  0  0
   -2.4359   -3.7971    1.1358 H   0  0  0  0  0  0  0  0  0  0  0  0
   -0.8736   -2.0435    0.4850 H   0  0  0  0  0  0  0  0  0  0  0  0
    0.7732    3.6628    0.2967 H   0  0  0  0  0  0  0  0  0  0  0  0
   -1.5709    3.3908   -0.3589 H   0  0  0  0  0  0  0  0  0  0  0  0
   -3.4693    1.9768   -0.7831 H   0  0  0  0  0  0  0  0  0  0  0  0
   -5.2603   -1.2863   -1.1647 H   0  0  0  0  0  0  0  0  0  0  0  0
   -6.5379    2.6335   -2.7697 H   0  0  0  0  0  0  0  0  0  0  0  0
   -4.7739    2.2372   -2.7296 H   0  0  0  0  0  0  0  0  0  0  0  0
   -5.9362    1.0972   -3.5134 H   0  0  0  0  0  0  0  0  0  0  0  0
    3.9632    1.2014    2.2745 H   0  0  0  0  0  0  0  0  0  0  0  0
    5.8055   -0.2620    1.7719 H   0  0  0  0  0  0  0  0  0  0  0  0
    4.4485   -0.2406   -2.9957 H   0  0  0  0  0  0  0  0  0  0  0  0
    3.2190   -1.2925    2.2608 H   0  0  0  0  0  0  0  0  0  0  0  0
    2.8649    0.0937    4.1044 H   0  0  0  0  0  0  0  0  0  0  0  0
    1.5179    0.8453    3.4266 H   0  0  0  0  0  0  0  0  0  0  0  0
    0.7579   -1.5825    1.8535 H   0  0  0  0  0  0  0  0  0  0  0  0
    1.7495   -1.4073    0.3637 H   0  0  0  0  0  0  0  0  0  0  0  0
  1  2  1  0
  2  3  1  0
  3  4  2  0
  4  5  1  0
  5  6  2  0
  6  7  1  0
  7  8  2  0
  8  9  1  0
  9 10  2  0
 10 11  1  0
 11 12  2  0
 12 13  1  0
 13 14  1  0
 14 15  1  0
 14 16  2  0
 14 17  2  0
  7 18  1  0
 18 19  1  0
 19 20  1  0
 20 21  2  0
 21 22  1  0
 22 23  1  0
 22 24  2  0
 24 25  1  0
 24 26  1  0
 26 27  2  0
 27 28  1  0
 19 29  1  0
 29 30  1  0
 29 31  1  0
 12  3  1  0
 27 20  1  0
 10  5  1  0
 31  6  1  0
  1 32  1  0
  1 33  1  0
  1 34  1  0
  4 35  1  0
  8 36  1  0
  9 37  1  0
 11 38  1  0
 13 39  1  0
 15 40  1  0
 15 41  1  0
 15 42  1  0
 19 43  1  1
 21 44  1  0
 26 45  1  0
 29 46  1  1
 30 47  1  0
 30 48  1  0
 31 49  1  0
 31 50  1  0
M  END
$$$$
