
     RDKit          3D

 35 35  0  0  0  0  0  0  0  0999 V2000
   -4.6955   -0.5685   -0.7665 N   0  0  0  0  0  0  0  0  0  0  0  0
   -4.0061    0.2914    0.1951 C   0  0  0  0  0  0  0  0  0  0  0  0
   -2.8016    1.0278   -0.4235 C   0  0  0  0  0  0  0  0  0  0  0  0
   -1.6969    0.1093   -0.9795 C   0  0  0  0  0  0  0  0  0  0  0  0
   -1.0453   -0.8470    0.0448 C   0  0  0  0  0  0  0  0  0  0  0  0
   -0.2304   -0.1804    1.1805 C   0  0  0  0  0  0  0  0  0  0  0  0
   -1.1154    0.4567    2.1582 N   0  0  0  0  0  0  0  0  0  0  0  0
    0.7750    0.8153    0.6400 C   0  0  0  0  0  0  0  0  0  0  0  0
    0.4506    2.0323    0.5603 O   0  0  0  0  0  0  0  0  0  0  0  0
    2.0664    0.3988    0.1579 N   0  0  0  0  0  0  0  0  0  0  0  0
    2.6222   -0.9350    0.3192 C   0  0  0  0  0  0  0  0  0  0  0  0
    4.0479   -0.8542   -0.2111 C   0  0  0  0  0  0  0  0  0  0  0  0
    4.1194    0.4322   -1.0290 C   0  0  0  0  0  0  0  0  0  0  0  0
    2.9645    1.2981   -0.5454 C   0  0  0  0  0  0  0  0  0  0  0  0
   -4.8479   -0.0426   -1.6577 H   0  0  0  0  0  0  0  0  0  0  0  0
   -4.0971   -1.3997   -0.9745 H   0  0  0  0  0  0  0  0  0  0  0  0
   -3.6945   -0.3074    1.0756 H   0  0  0  0  0  0  0  0  0  0  0  0
   -4.7269    1.0515    0.5651 H   0  0  0  0  0  0  0  0  0  0  0  0
   -2.3719    1.7198    0.3291 H   0  0  0  0  0  0  0  0  0  0  0  0
   -3.1689    1.6690   -1.2540 H   0  0  0  0  0  0  0  0  0  0  0  0
   -0.9123    0.7418   -1.4462 H   0  0  0  0  0  0  0  0  0  0  0  0
   -2.1177   -0.4986   -1.8083 H   0  0  0  0  0  0  0  0  0  0  0  0
   -1.8134   -1.5202    0.4797 H   0  0  0  0  0  0  0  0  0  0  0  0
   -0.3582   -1.5112   -0.5219 H   0  0  0  0  0  0  0  0  0  0  0  0
    0.3199   -0.9892    1.7089 H   0  0  0  0  0  0  0  0  0  0  0  0
   -0.5274    0.8427    2.9330 H   0  0  0  0  0  0  0  0  0  0  0  0
   -1.7114   -0.2835    2.5953 H   0  0  0  0  0  0  0  0  0  0  0  0
    2.6303   -1.2277    1.3912 H   0  0  0  0  0  0  0  0  0  0  0  0
    2.0311   -1.6646   -0.2737 H   0  0  0  0  0  0  0  0  0  0  0  0
    4.3003   -1.7416   -0.8314 H   0  0  0  0  0  0  0  0  0  0  0  0
    4.7606   -0.7908    0.6407 H   0  0  0  0  0  0  0  0  0  0  0  0
    3.9806    0.1935   -2.1066 H   0  0  0  0  0  0  0  0  0  0  0  0
    5.0958    0.9455   -0.8917 H   0  0  0  0  0  0  0  0  0  0  0  0
    2.4446    1.7708   -1.4070 H   0  0  0  0  0  0  0  0  0  0  0  0
    3.3295    2.0819    0.1533 H   0  0  0  0  0  0  0  0  0  0  0  0
  1  2  1  0
  2  3  1  0
  3  4  1  0
  4  5  1  0
  5  6  1  0
  6  7  1  0
  6  8  1  0
  8  9  2  0
  8 10  1  0
 10 11  1  0
 11 12  1  0
 12 13  1  0
 13 14  1  0
 14 10  1  0
  1 15  1  0
  1 16  1  0
  2 17  1  0
  2 18  1  0
  3 19  1  0
  3 20  1  0
  4 21  1  0
  4 22  1  0
  5 23  1  0
  5 24  1  0
  6 25  1  0
  7 26  1  0
  7 27  1  0
 11 28  1  0
 11 29  1  0
 12 30  1  0
 12 31  1  0
 13 32  1  0
 13 33  1  0
 14 34  1  0
 14 35  1  0
M  END
$$$$
