
     RDKit          3D

 52 55  0  0  0  0  0  0  0  0999 V2000
   -5.4218   -2.0971   -2.6366 N   0  0  0  0  0  0  0  0  0  0  0  0
   -4.7411   -1.0078   -2.0143 C   0  0  0  0  0  0  0  0  0  0  0  0
   -3.7088   -0.5278   -2.5562 O   0  0  0  0  0  0  0  0  0  0  0  0
   -5.2787   -0.4011   -0.7432 C   0  0  2  0  0  0  0  0  0  0  0  0
   -6.0421    0.8945   -1.0290 C   0  0  0  0  0  0  0  0  0  0  0  0
   -5.6104    1.8794    0.0535 C   0  0  0  0  0  0  0  0  0  0  0  0
   -4.2860    1.3573    0.5946 C   0  0  0  0  0  0  0  0  0  0  0  0
   -4.2010   -0.0294    0.1655 N   0  0  0  0  0  0  0  0  0  0  0  0
   -3.2324   -0.9679    0.6738 C   0  0  0  0  0  0  0  0  0  0  0  0
   -3.3743   -2.1986    0.4334 O   0  0  0  0  0  0  0  0  0  0  0  0
   -2.0081   -0.4948    1.4209 C   0  0  2  0  0  0  0  0  0  0  0  0
   -0.9387    0.0759    0.4593 C   0  0  0  0  0  0  0  0  0  0  0  0
    0.4249   -0.4899    0.9166 C   0  0  1  0  0  0  0  0  0  0  0  0
    1.2692    0.5822    1.6339 C   0  0  0  0  0  0  0  0  0  0  0  0
    2.6429    0.0726    1.9783 C   0  0  0  0  0  0  0  0  0  0  0  0
    2.8491   -0.3887    3.1335 O   0  0  0  0  0  0  0  0  0  0  0  0
    3.7079    0.0680    1.0120 N   0  0  0  0  0  0  0  0  0  0  0  0
    5.0166   -0.5359    1.2709 C   0  0  0  0  0  0  0  0  0  0  0  0
    5.7616   -0.2732    0.0165 C   0  0  0  0  0  0  0  0  0  0  0  0
    7.0726   -0.6376   -0.2947 C   0  0  0  0  0  0  0  0  0  0  0  0
    7.5858   -0.2840   -1.5533 C   0  0  0  0  0  0  0  0  0  0  0  0
    6.7863    0.4226   -2.4725 C   0  0  0  0  0  0  0  0  0  0  0  0
    5.4699    0.7790   -2.1377 C   0  0  0  0  0  0  0  0  0  0  0  0
    4.9806    0.4170   -0.8814 C   0  0  0  0  0  0  0  0  0  0  0  0
    3.6365    0.6840   -0.3163 C   0  0  0  0  0  0  0  0  0  0  0  0
    0.0215   -1.5817    1.8394 C   0  0  0  0  0  0  0  0  0  0  0  0
    0.8155   -2.4332    2.3196 O   0  0  0  0  0  0  0  0  0  0  0  0
   -1.3602   -1.5903    2.1195 N   0  0  0  0  0  0  0  0  0  0  0  0
   -5.0555   -2.5092   -3.5232 H   0  0  0  0  0  0  0  0  0  0  0  0
   -6.2931   -2.4916   -2.2180 H   0  0  0  0  0  0  0  0  0  0  0  0
   -5.9480   -1.1244   -0.2268 H   0  0  0  0  0  0  0  0  0  0  0  0
   -5.7723    1.3159   -2.0237 H   0  0  0  0  0  0  0  0  0  0  0  0
   -7.1408    0.7261   -1.0010 H   0  0  0  0  0  0  0  0  0  0  0  0
   -6.3684    1.8887    0.8677 H   0  0  0  0  0  0  0  0  0  0  0  0
   -5.5027    2.9082   -0.3538 H   0  0  0  0  0  0  0  0  0  0  0  0
   -3.4356    1.9326    0.1696 H   0  0  0  0  0  0  0  0  0  0  0  0
   -4.2782    1.4263    1.7038 H   0  0  0  0  0  0  0  0  0  0  0  0
   -2.2867    0.2749    2.1713 H   0  0  0  0  0  0  0  0  0  0  0  0
   -1.1291   -0.2598   -0.5853 H   0  0  0  0  0  0  0  0  0  0  0  0
   -0.9646    1.1877    0.4640 H   0  0  0  0  0  0  0  0  0  0  0  0
    0.9758   -0.9105    0.0474 H   0  0  0  0  0  0  0  0  0  0  0  0
    1.3671    1.4768    0.9835 H   0  0  0  0  0  0  0  0  0  0  0  0
    0.7518    0.9153    2.5613 H   0  0  0  0  0  0  0  0  0  0  0  0
    5.5121   -0.0369    2.1309 H   0  0  0  0  0  0  0  0  0  0  0  0
    4.9123   -1.6285    1.4424 H   0  0  0  0  0  0  0  0  0  0  0  0
    7.6809   -1.1804    0.4172 H   0  0  0  0  0  0  0  0  0  0  0  0
    8.5995   -0.5555   -1.8175 H   0  0  0  0  0  0  0  0  0  0  0  0
    7.1878    0.6921   -3.4407 H   0  0  0  0  0  0  0  0  0  0  0  0
    4.8493    1.3221   -2.8386 H   0  0  0  0  0  0  0  0  0  0  0  0
    2.8544    0.1977   -0.9353 H   0  0  0  0  0  0  0  0  0  0  0  0
    3.4652    1.7780   -0.2300 H   0  0  0  0  0  0  0  0  0  0  0  0
   -1.8187   -2.2052    2.8288 H   0  0  0  0  0  0  0  0  0  0  0  0
  1  2  1  0
  2  3  2  0
  2  4  1  0
  4  5  1  0
  5  6  1  0
  6  7  1  0
  7  8  1  0
  8  9  1  0
  9 10  2  0
  9 11  1  0
 11 12  1  0
 12 13  1  0
 13 14  1  0
 14 15  1  0
 15 16  2  0
 15 17  1  0
 17 18  1  0
 18 19  1  0
 19 20  2  0
 20 21  1  0
 21 22  2  0
 22 23  1  0
 23 24  2  0
 24 25  1  0
 13 26  1  0
 26 27  2  0
 26 28  1  0
  8  4  1  0
 28 11  1  0
 25 17  1  0
 24 19  1  0
  1 29  1  0
  1 30  1  0
  4 31  1  1
  5 32  1  0
  5 33  1  0
  6 34  1  0
  6 35  1  0
  7 36  1  0
  7 37  1  0
 11 38  1  1
 12 39  1  0
 12 40  1  0
 13 41  1  6
 14 42  1  0
 14 43  1  0
 18 44  1  0
 18 45  1  0
 20 46  1  0
 21 47  1  0
 22 48  1  0
 23 49  1  0
 25 50  1  0
 25 51  1  0
 28 52  1  0
M  END
$$$$
