
     RDKit          3D

 34 35  0  0  0  0  0  0  0  0999 V2000
   -4.3207    2.8275    0.2157 C   0  0  0  0  0  0  0  0  0  0  0  0
   -3.1758    2.0079    0.0031 O   0  0  0  0  0  0  0  0  0  0  0  0
   -3.1888    0.6023   -0.0081 C   0  0  0  0  0  0  0  0  0  0  0  0
   -4.3756   -0.1256    0.2052 C   0  0  0  0  0  0  0  0  0  0  0  0
   -4.3722   -1.5228    0.1942 C   0  0  0  0  0  0  0  0  0  0  0  0
   -5.5747   -2.1961    0.4144 O   0  0  0  0  0  0  0  0  0  0  0  0
   -3.1710   -2.2129   -0.0395 C   0  0  0  0  0  0  0  0  0  0  0  0
   -3.1131   -3.9703   -0.0837 Cl  0  0  0  0  0  0  0  0  0  0  0  0
   -1.9886   -1.4990   -0.2538 C   0  0  0  0  0  0  0  0  0  0  0  0
   -1.9802   -0.0908   -0.2285 C   0  0  0  0  0  0  0  0  0  0  0  0
   -0.7312    0.6756   -0.4728 C   0  0  0  0  0  0  0  0  0  0  0  0
    0.4883    0.2104   -0.1654 C   0  0  0  0  0  0  0  0  0  0  0  0
    1.7165    1.0039   -0.4006 C   0  0  0  0  0  0  0  0  0  0  0  0
    1.6186    2.2134   -0.7477 O   0  0  0  0  0  0  0  0  0  0  0  0
    3.0662    0.4152   -0.2114 C   0  0  0  0  0  0  0  0  0  0  0  0
    4.1596    1.2507    0.0839 C   0  0  0  0  0  0  0  0  0  0  0  0
    5.4381    0.7130    0.2591 C   0  0  0  0  0  0  0  0  0  0  0  0
    5.6452   -0.6660    0.1333 C   0  0  0  0  0  0  0  0  0  0  0  0
    6.9148   -1.2129    0.3059 O   0  0  0  0  0  0  0  0  0  0  0  0
    4.5685   -1.5028   -0.1718 C   0  0  0  0  0  0  0  0  0  0  0  0
    3.2879   -0.9693   -0.3469 C   0  0  0  0  0  0  0  0  0  0  0  0
   -4.0167    3.8932    0.1688 H   0  0  0  0  0  0  0  0  0  0  0  0
   -4.7540    2.6257    1.2180 H   0  0  0  0  0  0  0  0  0  0  0  0
   -5.0775    2.6390   -0.5747 H   0  0  0  0  0  0  0  0  0  0  0  0
   -5.3128    0.3842    0.3827 H   0  0  0  0  0  0  0  0  0  0  0  0
   -5.6442   -3.2057    0.4205 H   0  0  0  0  0  0  0  0  0  0  0  0
   -1.0835   -2.0527   -0.4661 H   0  0  0  0  0  0  0  0  0  0  0  0
   -0.8242    1.6726   -0.8865 H   0  0  0  0  0  0  0  0  0  0  0  0
    0.5868   -0.7545    0.3117 H   0  0  0  0  0  0  0  0  0  0  0  0
    4.0239    2.3199    0.1907 H   0  0  0  0  0  0  0  0  0  0  0  0
    6.2668    1.3693    0.4927 H   0  0  0  0  0  0  0  0  0  0  0  0
    7.7157   -0.6326    0.5267 H   0  0  0  0  0  0  0  0  0  0  0  0
    4.7254   -2.5686   -0.2801 H   0  0  0  0  0  0  0  0  0  0  0  0
    2.4823   -1.6411   -0.6112 H   0  0  0  0  0  0  0  0  0  0  0  0
  1  2  1  0
  2  3  1  0
  3  4  2  0
  4  5  1  0
  5  6  1  0
  5  7  2  0
  7  8  1  0
  7  9  1  0
  9 10  2  0
 10 11  1  0
 11 12  2  0
 12 13  1  0
 13 14  2  0
 13 15  1  0
 15 16  2  0
 16 17  1  0
 17 18  2  0
 18 19  1  0
 18 20  1  0
 20 21  2  0
 10  3  1  0
 21 15  1  0
  1 22  1  0
  1 23  1  0
  1 24  1  0
  4 25  1  0
  6 26  1  0
  9 27  1  0
 11 28  1  0
 12 29  1  0
 16 30  1  0
 17 31  1  0
 19 32  1  0
 20 33  1  0
 21 34  1  0
M  END
$$$$
