
     RDKit          3D

 41 42  0  0  0  0  0  0  0  0999 V2000
   -1.7271    0.6468    2.7216 C   0  0  0  0  0  0  0  0  0  0  0  0
   -1.8882    0.2359    1.5994 C   0  0  0  0  0  0  0  0  0  0  0  0
   -2.0868   -0.2686    0.2189 C   0  0  0  0  0  0  0  0  0  0  0  0
   -0.8789   -1.0214   -0.2047 N   0  0  0  0  0  0  0  0  0  0  0  0
    0.3562   -0.2197   -0.3021 C   0  0  0  0  0  0  0  0  0  0  0  0
    1.5700   -1.1123   -0.2783 C   0  0  0  0  0  0  0  0  0  0  0  0
    1.4425   -2.3339   -0.5679 O   0  0  0  0  0  0  0  0  0  0  0  0
    2.8832   -0.5897    0.0196 N   0  0  0  0  0  0  0  0  0  0  0  0
    3.1764    0.8059    0.3336 C   0  0  2  0  0  0  0  0  0  0  0  0
    2.8728    1.6779   -0.8135 C   0  0  0  0  0  0  0  0  0  0  0  0
    2.6337    2.3630   -1.7149 N   0  0  0  0  0  0  0  0  0  0  0  0
    4.6690    0.8499    0.6728 C   0  0  0  0  0  0  0  0  0  0  0  0
    5.0679   -0.5953    0.9532 C   0  0  0  0  0  0  0  0  0  0  0  0
    4.0362   -1.4560    0.2262 C   0  0  2  0  0  0  0  0  0  0  0  0
    4.5498   -1.9212   -1.0724 C   0  0  0  0  0  0  0  0  0  0  0  0
    4.9530   -2.2866   -2.0937 N   0  0  0  0  0  0  0  0  0  0  0  0
   -2.3702    0.9278   -0.7349 C   0  0  0  0  0  0  0  0  0  0  0  0
   -3.6588    1.7033   -0.3797 C   0  0  0  0  0  0  0  0  0  0  0  0
   -4.7504    0.8310    0.2650 C   0  0  0  0  0  0  0  0  0  0  0  0
   -4.6465   -0.6239   -0.1876 C   0  0  0  0  0  0  0  0  0  0  0  0
   -3.3030   -1.2557    0.2272 C   0  0  0  0  0  0  0  0  0  0  0  0
   -1.5857    1.0077    3.7061 H   0  0  0  0  0  0  0  0  0  0  0  0
   -1.0521   -1.4366   -1.1516 H   0  0  0  0  0  0  0  0  0  0  0  0
    0.4291    0.4960    0.5412 H   0  0  0  0  0  0  0  0  0  0  0  0
    0.3647    0.3521   -1.2554 H   0  0  0  0  0  0  0  0  0  0  0  0
    2.5835    1.1254    1.2174 H   0  0  0  0  0  0  0  0  0  0  0  0
    4.8625    1.4968    1.5562 H   0  0  0  0  0  0  0  0  0  0  0  0
    5.2741    1.2245   -0.1842 H   0  0  0  0  0  0  0  0  0  0  0  0
    6.1142   -0.7998    0.6329 H   0  0  0  0  0  0  0  0  0  0  0  0
    4.9934   -0.7844    2.0470 H   0  0  0  0  0  0  0  0  0  0  0  0
    3.7614   -2.3317    0.8540 H   0  0  0  0  0  0  0  0  0  0  0  0
   -1.5258    1.6501   -0.7292 H   0  0  0  0  0  0  0  0  0  0  0  0
   -2.4615    0.5406   -1.7739 H   0  0  0  0  0  0  0  0  0  0  0  0
   -4.0591    2.1671   -1.3076 H   0  0  0  0  0  0  0  0  0  0  0  0
   -3.4102    2.5324    0.3185 H   0  0  0  0  0  0  0  0  0  0  0  0
   -4.6627    0.8743    1.3728 H   0  0  0  0  0  0  0  0  0  0  0  0
   -5.7513    1.2323   -0.0043 H   0  0  0  0  0  0  0  0  0  0  0  0
   -5.4826   -1.2100    0.2518 H   0  0  0  0  0  0  0  0  0  0  0  0
   -4.7533   -0.6669   -1.2943 H   0  0  0  0  0  0  0  0  0  0  0  0
   -3.4197   -1.7225    1.2317 H   0  0  0  0  0  0  0  0  0  0  0  0
   -3.1198   -2.1043   -0.4678 H   0  0  0  0  0  0  0  0  0  0  0  0
  1  2  3  0
  2  3  1  0
  3  4  1  0
  4  5  1  0
  5  6  1  0
  6  7  2  0
  6  8  1  0
  8  9  1  0
  9 10  1  0
 10 11  3  0
  9 12  1  0
 12 13  1  0
 13 14  1  0
 14 15  1  0
 15 16  3  0
  3 17  1  0
 17 18  1  0
 18 19  1  0
 19 20  1  0
 20 21  1  0
 21  3  1  0
 14  8  1  0
  1 22  1  0
  4 23  1  0
  5 24  1  0
  5 25  1  0
  9 26  1  1
 12 27  1  0
 12 28  1  0
 13 29  1  0
 13 30  1  0
 14 31  1  1
 17 32  1  0
 17 33  1  0
 18 34  1  0
 18 35  1  0
 19 36  1  0
 19 37  1  0
 20 38  1  0
 20 39  1  0
 21 40  1  0
 21 41  1  0
M  END
$$$$
