
     RDKit          3D

 63 65  0  0  0  0  0  0  0  0999 V2000
    2.6929    0.5014    1.0687 N   0  0  0  0  0  0  0  0  0  0  0  0
    2.6776   -0.6722    0.1863 C   0  0  2  0  0  0  0  0  0  0  0  0
    3.6820   -0.5248   -0.9831 C   0  0  0  0  0  0  0  0  0  0  0  0
    5.1077   -0.4800   -0.4912 C   0  0  0  0  0  0  0  0  0  0  0  0
    5.7539    0.7557   -0.3138 C   0  0  0  0  0  0  0  0  0  0  0  0
    7.0657    0.8041    0.1677 C   0  0  0  0  0  0  0  0  0  0  0  0
    7.6825    1.9999    0.3345 F   0  0  0  0  0  0  0  0  0  0  0  0
    7.7404   -0.3789    0.4805 C   0  0  0  0  0  0  0  0  0  0  0  0
    7.1040   -1.6116    0.3149 C   0  0  0  0  0  0  0  0  0  0  0  0
    5.7916   -1.6667   -0.1659 C   0  0  0  0  0  0  0  0  0  0  0  0
    5.1889   -2.8739   -0.3124 F   0  0  0  0  0  0  0  0  0  0  0  0
    1.2370   -0.9708   -0.3181 C   0  0  1  0  0  0  0  0  0  0  0  0
    0.2627   -1.2729    0.8570 C   0  0  0  0  0  0  0  0  0  0  0  0
   -0.5587   -0.0508    1.2994 C   0  0  0  0  0  0  0  0  0  0  0  0
   -1.3040    0.6596    0.1355 C   0  0  2  0  0  0  0  0  0  0  0  0
   -2.7825    0.6201    0.3572 N   0  0  0  0  0  0  0  0  0  0  0  0
   -3.4327    1.9503    0.3206 C   0  0  0  0  0  0  0  0  0  0  0  0
   -3.4196    2.5923   -1.0820 C   0  0  0  0  0  0  0  0  0  0  0  0
   -4.3271    3.8317   -1.1827 C   0  0  0  0  0  0  0  0  0  0  0  0
   -3.8321    5.0405   -0.3771 C   0  0  0  0  0  0  0  0  0  0  0  0
   -4.0041    4.8254    0.9779 F   0  0  0  0  0  0  0  0  0  0  0  0
   -2.4957    5.2872   -0.6378 F   0  0  0  0  0  0  0  0  0  0  0  0
   -4.5662    6.1558   -0.7376 F   0  0  0  0  0  0  0  0  0  0  0  0
   -3.5727   -0.4322   -0.3269 C   0  0  0  0  0  0  0  0  0  0  0  0
   -3.2946   -1.7945    0.2526 C   0  0  0  0  0  0  0  0  0  0  0  0
   -2.9263   -2.8651   -0.5806 C   0  0  0  0  0  0  0  0  0  0  0  0
   -2.6848   -4.1304   -0.0366 C   0  0  0  0  0  0  0  0  0  0  0  0
   -2.8261   -4.3410    1.3374 C   0  0  0  0  0  0  0  0  0  0  0  0
   -3.2199   -3.2892    2.1687 C   0  0  0  0  0  0  0  0  0  0  0  0
   -3.4640   -2.0230    1.6287 C   0  0  0  0  0  0  0  0  0  0  0  0
   -0.8358    0.1750   -1.2616 C   0  0  0  0  0  0  0  0  0  0  0  0
    0.6923    0.1086   -1.2956 C   0  0  0  0  0  0  0  0  0  0  0  0
    2.7377    1.3799    0.5040 H   0  0  0  0  0  0  0  0  0  0  0  0
    3.5580    0.4703    1.6556 H   0  0  0  0  0  0  0  0  0  0  0  0
    2.9944   -1.5584    0.7833 H   0  0  0  0  0  0  0  0  0  0  0  0
    3.5692   -1.3835   -1.6805 H   0  0  0  0  0  0  0  0  0  0  0  0
    3.4567    0.3902   -1.5730 H   0  0  0  0  0  0  0  0  0  0  0  0
    5.2400    1.6807   -0.5451 H   0  0  0  0  0  0  0  0  0  0  0  0
    8.7557   -0.3414    0.8541 H   0  0  0  0  0  0  0  0  0  0  0  0
    7.6285   -2.5257    0.5621 H   0  0  0  0  0  0  0  0  0  0  0  0
    1.3028   -1.9187   -0.9000 H   0  0  0  0  0  0  0  0  0  0  0  0
   -0.4429   -2.0698    0.5417 H   0  0  0  0  0  0  0  0  0  0  0  0
    0.8112   -1.6811    1.7335 H   0  0  0  0  0  0  0  0  0  0  0  0
   -1.2740   -0.3664    2.0876 H   0  0  0  0  0  0  0  0  0  0  0  0
    0.1291    0.6712    1.7910 H   0  0  0  0  0  0  0  0  0  0  0  0
   -0.9619    1.7196    0.1933 H   0  0  0  0  0  0  0  0  0  0  0  0
   -2.9173    2.6198    1.0414 H   0  0  0  0  0  0  0  0  0  0  0  0
   -4.4802    1.8612    0.6837 H   0  0  0  0  0  0  0  0  0  0  0  0
   -3.7845    1.8567   -1.8284 H   0  0  0  0  0  0  0  0  0  0  0  0
   -2.3832    2.8681   -1.3682 H   0  0  0  0  0  0  0  0  0  0  0  0
   -4.3793    4.1283   -2.2531 H   0  0  0  0  0  0  0  0  0  0  0  0
   -5.3600    3.5711   -0.8646 H   0  0  0  0  0  0  0  0  0  0  0  0
   -4.6605   -0.2500   -0.1830 H   0  0  0  0  0  0  0  0  0  0  0  0
   -3.4129   -0.4090   -1.4250 H   0  0  0  0  0  0  0  0  0  0  0  0
   -2.8201   -2.7216   -1.6485 H   0  0  0  0  0  0  0  0  0  0  0  0
   -2.3897   -4.9483   -0.6811 H   0  0  0  0  0  0  0  0  0  0  0  0
   -2.6380   -5.3208    1.7568 H   0  0  0  0  0  0  0  0  0  0  0  0
   -3.3389   -3.4556    3.2315 H   0  0  0  0  0  0  0  0  0  0  0  0
   -3.7756   -1.2179    2.2826 H   0  0  0  0  0  0  0  0  0  0  0  0
   -1.2162   -0.8369   -1.5021 H   0  0  0  0  0  0  0  0  0  0  0  0
   -1.1930    0.8742   -2.0467 H   0  0  0  0  0  0  0  0  0  0  0  0
    1.0909    1.1155   -1.0518 H   0  0  0  0  0  0  0  0  0  0  0  0
    1.0217   -0.1310   -2.3303 H   0  0  0  0  0  0  0  0  0  0  0  0
  1  2  1  0
  2  3  1  0
  3  4  1  0
  4  5  2  0
  5  6  1  0
  6  7  1  0
  6  8  2  0
  8  9  1  0
  9 10  2  0
 10 11  1  0
  2 12  1  0
 12 13  1  0
 13 14  1  0
 14 15  1  0
 15 16  1  0
 16 17  1  0
 17 18  1  0
 18 19  1  0
 19 20  1  0
 20 21  1  0
 20 22  1  0
 20 23  1  0
 16 24  1  0
 24 25  1  0
 25 26  2  0
 26 27  1  0
 27 28  2  0
 28 29  1  0
 29 30  2  0
 15 31  1  0
 31 32  1  0
 10  4  1  0
 32 12  1  0
 30 25  1  0
  1 33  1  0
  1 34  1  0
  2 35  1  1
  3 36  1  0
  3 37  1  0
  5 38  1  0
  8 39  1  0
  9 40  1  0
 12 41  1  6
 13 42  1  0
 13 43  1  0
 14 44  1  0
 14 45  1  0
 15 46  1  6
 17 47  1  0
 17 48  1  0
 18 49  1  0
 18 50  1  0
 19 51  1  0
 19 52  1  0
 24 53  1  0
 24 54  1  0
 26 55  1  0
 27 56  1  0
 28 57  1  0
 29 58  1  0
 30 59  1  0
 31 60  1  0
 31 61  1  0
 32 62  1  0
 32 63  1  0
M  END
$$$$
