
     RDKit          3D

 70 72  0  0  0  0  0  0  0  0999 V2000
   -7.7311    2.7152    1.6687 C   0  0  0  0  0  0  0  0  0  0  0  0
   -7.5081    1.2906    1.1366 C   0  0  0  0  0  0  0  0  0  0  0  0
   -8.8414    0.6617    0.7065 C   0  0  0  0  0  0  0  0  0  0  0  0
   -6.4500    1.2305    0.0069 C   0  0  2  0  0  0  0  0  0  0  0  0
   -5.1904    1.6797    0.5160 O   0  0  0  0  0  0  0  0  0  0  0  0
   -3.9491    1.5282   -0.1242 C   0  0  0  0  0  0  0  0  0  0  0  0
   -3.8032    0.8606   -1.3559 C   0  0  0  0  0  0  0  0  0  0  0  0
   -2.5420    0.7392   -1.9465 C   0  0  0  0  0  0  0  0  0  0  0  0
   -1.4101    1.2821   -1.3209 C   0  0  0  0  0  0  0  0  0  0  0  0
   -0.0531    1.1220   -1.9506 C   0  0  0  0  0  0  0  0  0  0  0  0
    0.3728   -0.2739   -1.8856 N   0  0  0  0  0  0  0  0  0  0  0  0
    0.7703   -0.8993   -0.6574 C   0  0  0  0  0  0  0  0  0  0  0  0
    0.7703   -0.2407    0.4184 O   0  0  0  0  0  0  0  0  0  0  0  0
    1.1622   -2.3544   -0.6419 C   0  0  2  0  0  0  0  0  0  0  0  0
    0.0856   -3.2187    0.0155 C   0  0  0  0  0  0  0  0  0  0  0  0
    0.8427   -4.2466    0.8504 C   0  0  0  0  0  0  0  0  0  0  0  0
    2.2152   -3.6403    1.1160 C   0  0  0  0  0  0  0  0  0  0  0  0
    2.3700   -2.5681    0.1451 N   0  0  0  0  0  0  0  0  0  0  0  0
    3.6298   -1.9434   -0.1713 C   0  0  0  0  0  0  0  0  0  0  0  0
    3.7667   -1.3556   -1.2775 O   0  0  0  0  0  0  0  0  0  0  0  0
    4.7911   -1.9519    0.7917 C   0  0  0  0  0  0  0  0  0  0  0  0
    4.8185   -0.7374    1.7558 C   0  0  2  0  0  0  0  0  0  0  0  0
    3.6817   -0.7513    2.6793 N   0  0  0  0  0  0  0  0  0  0  0  0
    4.8862    0.6320    1.0406 C   0  0  0  0  0  0  0  0  0  0  0  0
    6.1229    0.7969    0.1832 C   0  0  0  0  0  0  0  0  0  0  0  0
    7.3993    0.7494    0.7741 C   0  0  0  0  0  0  0  0  0  0  0  0
    8.5487    0.9037   -0.0066 C   0  0  0  0  0  0  0  0  0  0  0  0
    9.7735    0.8461    0.5722 F   0  0  0  0  0  0  0  0  0  0  0  0
    8.4366    1.1232   -1.3810 C   0  0  0  0  0  0  0  0  0  0  0  0
    7.1753    1.2008   -1.9750 C   0  0  0  0  0  0  0  0  0  0  0  0
    6.0206    1.0477   -1.2005 C   0  0  0  0  0  0  0  0  0  0  0  0
    4.8098    1.1681   -1.8011 F   0  0  0  0  0  0  0  0  0  0  0  0
   -1.5548    1.9423   -0.0914 C   0  0  0  0  0  0  0  0  0  0  0  0
   -2.8159    2.0638    0.4986 C   0  0  0  0  0  0  0  0  0  0  0  0
   -6.8504    2.0431   -1.1978 C   0  0  0  0  0  0  0  0  0  0  0  0
   -6.5780    3.2724   -1.2575 O   0  0  0  0  0  0  0  0  0  0  0  0
   -7.5431    1.4360   -2.2406 O   0  0  0  0  0  0  0  0  0  0  0  0
   -8.4003    2.6872    2.5550 H   0  0  0  0  0  0  0  0  0  0  0  0
   -8.2013    3.3604    0.8968 H   0  0  0  0  0  0  0  0  0  0  0  0
   -6.7675    3.1694    1.9822 H   0  0  0  0  0  0  0  0  0  0  0  0
   -7.1186    0.6809    1.9824 H   0  0  0  0  0  0  0  0  0  0  0  0
   -9.3228    1.2601   -0.0960 H   0  0  0  0  0  0  0  0  0  0  0  0
   -8.6779   -0.3727    0.3362 H   0  0  0  0  0  0  0  0  0  0  0  0
   -9.5352    0.6117    1.5727 H   0  0  0  0  0  0  0  0  0  0  0  0
   -6.3484    0.1648   -0.2961 H   0  0  0  0  0  0  0  0  0  0  0  0
   -4.6531    0.4300   -1.8657 H   0  0  0  0  0  0  0  0  0  0  0  0
   -2.4459    0.2182   -2.8913 H   0  0  0  0  0  0  0  0  0  0  0  0
   -0.1108    1.4397   -3.0143 H   0  0  0  0  0  0  0  0  0  0  0  0
    0.7054    1.7686   -1.4574 H   0  0  0  0  0  0  0  0  0  0  0  0
    0.3922   -0.8285   -2.7710 H   0  0  0  0  0  0  0  0  0  0  0  0
    1.3437   -2.7156   -1.6785 H   0  0  0  0  0  0  0  0  0  0  0  0
   -0.5547   -3.7131   -0.7471 H   0  0  0  0  0  0  0  0  0  0  0  0
   -0.5625   -2.6161    0.6912 H   0  0  0  0  0  0  0  0  0  0  0  0
    0.9565   -5.1858    0.2653 H   0  0  0  0  0  0  0  0  0  0  0  0
    0.3083   -4.4712    1.7991 H   0  0  0  0  0  0  0  0  0  0  0  0
    2.2608   -3.2278    2.1449 H   0  0  0  0  0  0  0  0  0  0  0  0
    3.0042   -4.4110    0.9778 H   0  0  0  0  0  0  0  0  0  0  0  0
    4.7898   -2.8880    1.3869 H   0  0  0  0  0  0  0  0  0  0  0  0
    5.7365   -1.9702    0.2072 H   0  0  0  0  0  0  0  0  0  0  0  0
    5.7363   -0.8417    2.3747 H   0  0  0  0  0  0  0  0  0  0  0  0
    2.7865   -0.7223    2.1418 H   0  0  0  0  0  0  0  0  0  0  0  0
    3.7016   -1.6396    3.2306 H   0  0  0  0  0  0  0  0  0  0  0  0
    3.9599    0.7845    0.4465 H   0  0  0  0  0  0  0  0  0  0  0  0
    4.8965    1.4345    1.8101 H   0  0  0  0  0  0  0  0  0  0  0  0
    7.5062    0.5979    1.8406 H   0  0  0  0  0  0  0  0  0  0  0  0
    9.3265    1.2445   -1.9852 H   0  0  0  0  0  0  0  0  0  0  0  0
    7.0925    1.3883   -3.0379 H   0  0  0  0  0  0  0  0  0  0  0  0
   -0.6925    2.3604    0.4130 H   0  0  0  0  0  0  0  0  0  0  0  0
   -2.9137    2.5763    1.4473 H   0  0  0  0  0  0  0  0  0  0  0  0
   -7.8275    1.9680   -3.0543 H   0  0  0  0  0  0  0  0  0  0  0  0
  1  2  1  0
  2  3  1  0
  2  4  1  0
  4  5  1  0
  5  6  1  0
  6  7  2  0
  7  8  1  0
  8  9  2  0
  9 10  1  0
 10 11  1  0
 11 12  1  0
 12 13  2  0
 12 14  1  0
 14 15  1  0
 15 16  1  0
 16 17  1  0
 17 18  1  0
 18 19  1  0
 19 20  2  0
 19 21  1  0
 21 22  1  0
 22 23  1  0
 22 24  1  0
 24 25  1  0
 25 26  2  0
 26 27  1  0
 27 28  1  0
 27 29  2  0
 29 30  1  0
 30 31  2  0
 31 32  1  0
  9 33  1  0
 33 34  2  0
  4 35  1  0
 35 36  2  0
 35 37  1  0
 34  6  1  0
 18 14  1  0
 31 25  1  0
  1 38  1  0
  1 39  1  0
  1 40  1  0
  2 41  1  0
  3 42  1  0
  3 43  1  0
  3 44  1  0
  4 45  1  6
  7 46  1  0
  8 47  1  0
 10 48  1  0
 10 49  1  0
 11 50  1  0
 14 51  1  6
 15 52  1  0
 15 53  1  0
 16 54  1  0
 16 55  1  0
 17 56  1  0
 17 57  1  0
 21 58  1  0
 21 59  1  0
 22 60  1  1
 23 61  1  0
 23 62  1  0
 24 63  1  0
 24 64  1  0
 26 65  1  0
 29 66  1  0
 30 67  1  0
 33 68  1  0
 34 69  1  0
 37 70  1  0
M  END
$$$$
