
     RDKit          3D

 59 60  0  0  0  0  0  0  0  0999 V2000
    0.6878    0.0000    0.0000 Cl  0  0  0  0  0  0  0  0  0  0  0  0
    5.4951   -1.8247   -1.2730 N   0  0  0  0  0  0  0  0  0  0  0  0
    4.1811   -1.2761   -1.6206 C   0  0  1  0  0  0  0  0  0  0  0  0
    3.1080   -1.7394   -0.6048 C   0  0  0  0  0  0  0  0  0  0  0  0
    1.7123   -1.3182   -0.9974 C   0  0  0  0  0  0  0  0  0  0  0  0
    1.3382   -1.4866   -2.1906 O   0  0  0  0  0  0  0  0  0  0  0  0
    0.7907   -0.7612   -0.0348 N   0  0  0  0  0  0  0  0  0  0  0  0
    0.9214   -1.1019    1.3944 C   0  0  0  0  0  0  0  0  0  0  0  0
   -0.4067   -1.0665    2.1704 C   0  0  0  0  0  0  0  0  0  0  0  0
   -1.5370   -1.8192    1.4530 C   0  0  0  0  0  0  0  0  0  0  0  0
   -2.2198   -0.9402    0.4961 N   0  0  0  0  0  0  0  0  0  0  0  0
   -3.3960   -0.2199    0.9136 C   0  0  0  0  0  0  0  0  0  0  0  0
   -3.4545    0.2412    2.0864 O   0  0  0  0  0  0  0  0  0  0  0  0
   -4.5495   -0.0309    0.0016 C   0  0  0  0  0  0  0  0  0  0  0  0
   -4.7925   -0.9402   -1.0413 C   0  0  0  0  0  0  0  0  0  0  0  0
   -5.8866   -0.7648   -1.8900 C   0  0  0  0  0  0  0  0  0  0  0  0
   -6.7550    0.3126   -1.7046 C   0  0  0  0  0  0  0  0  0  0  0  0
   -6.5392    1.2281   -0.6600 C   0  0  0  0  0  0  0  0  0  0  0  0
   -7.4593    2.3694   -0.4567 C   0  0  0  0  0  0  0  0  0  0  0  0
   -8.4495    2.5352   -1.2194 O   0  0  0  0  0  0  0  0  0  0  0  0
   -7.2399    3.2724    0.5805 O   0  0  0  0  0  0  0  0  0  0  0  0
   -5.4348    1.0454    0.1918 C   0  0  0  0  0  0  0  0  0  0  0  0
   -1.5561   -0.5967   -0.7684 C   0  0  0  0  0  0  0  0  0  0  0  0
   -0.2520    0.1604   -0.5080 C   0  0  0  0  0  0  0  0  0  0  0  0
    4.2644    0.2617   -1.7779 C   0  0  0  0  0  0  0  0  0  0  0  0
    4.5976    0.9910   -0.4955 C   0  0  0  0  0  0  0  0  0  0  0  0
    3.5647    1.4933    0.3152 C   0  0  0  0  0  0  0  0  0  0  0  0
    3.8590    2.1448    1.5162 C   0  0  0  0  0  0  0  0  0  0  0  0
    2.8522    2.6156    2.2932 F   0  0  0  0  0  0  0  0  0  0  0  0
    5.1884    2.3115    1.9139 C   0  0  0  0  0  0  0  0  0  0  0  0
    5.4758    2.9443    3.0783 F   0  0  0  0  0  0  0  0  0  0  0  0
    6.2237    1.8311    1.1077 C   0  0  0  0  0  0  0  0  0  0  0  0
    5.9348    1.1756   -0.0937 C   0  0  0  0  0  0  0  0  0  0  0  0
    6.9581    0.7283   -0.8649 F   0  0  0  0  0  0  0  0  0  0  0  0
   -0.6878    0.0000    0.0000 H   0  0  0  0  0  0  0  0  0  0  0  0
    5.6898   -1.6549   -0.2594 H   0  0  0  0  0  0  0  0  0  0  0  0
    5.4683   -2.8619   -1.4065 H   0  0  0  0  0  0  0  0  0  0  0  0
    3.9052   -1.6842   -2.6194 H   0  0  0  0  0  0  0  0  0  0  0  0
    3.1221   -2.8485   -0.5400 H   0  0  0  0  0  0  0  0  0  0  0  0
    3.3699   -1.3485    0.3996 H   0  0  0  0  0  0  0  0  0  0  0  0
    1.3324   -2.1309    1.4933 H   0  0  0  0  0  0  0  0  0  0  0  0
    1.6390   -0.4019    1.8730 H   0  0  0  0  0  0  0  0  0  0  0  0
   -0.2360   -1.5419    3.1608 H   0  0  0  0  0  0  0  0  0  0  0  0
   -0.7056   -0.0152    2.3713 H   0  0  0  0  0  0  0  0  0  0  0  0
   -1.1421   -2.7176    0.9298 H   0  0  0  0  0  0  0  0  0  0  0  0
   -2.2658   -2.1872    2.2087 H   0  0  0  0  0  0  0  0  0  0  0  0
   -4.1439   -1.7936   -1.1936 H   0  0  0  0  0  0  0  0  0  0  0  0
   -6.0651   -1.4695   -2.6920 H   0  0  0  0  0  0  0  0  0  0  0  0
   -7.5967    0.4260   -2.3764 H   0  0  0  0  0  0  0  0  0  0  0  0
   -7.8637    4.0568    0.7282 H   0  0  0  0  0  0  0  0  0  0  0  0
   -5.2552    1.7465    0.9979 H   0  0  0  0  0  0  0  0  0  0  0  0
   -2.2104    0.0473   -1.3942 H   0  0  0  0  0  0  0  0  0  0  0  0
   -1.3538   -1.5234   -1.3474 H   0  0  0  0  0  0  0  0  0  0  0  0
    0.0764    0.6585   -1.4469 H   0  0  0  0  0  0  0  0  0  0  0  0
   -0.4168    0.9743    0.2305 H   0  0  0  0  0  0  0  0  0  0  0  0
    5.0289    0.5023   -2.5485 H   0  0  0  0  0  0  0  0  0  0  0  0
    3.3021    0.6425   -2.1846 H   0  0  0  0  0  0  0  0  0  0  0  0
    2.5312    1.3819    0.0164 H   0  0  0  0  0  0  0  0  0  0  0  0
    7.2530    1.9676    1.4139 H   0  0  0  0  0  0  0  0  0  0  0  0
  2  3  1  0
  3  4  1  0
  4  5  1  0
  5  6  2  0
  5  7  1  0
  7  8  1  0
  8  9  1  0
  9 10  1  0
 10 11  1  0
 11 12  1  0
 12 13  2  0
 12 14  1  0
 14 15  2  0
 15 16  1  0
 16 17  2  0
 17 18  1  0
 18 19  1  0
 19 20  2  0
 19 21  1  0
 18 22  2  0
 11 23  1  0
 23 24  1  0
  3 25  1  0
 25 26  1  0
 26 27  2  0
 27 28  1  0
 28 29  1  0
 28 30  2  0
 30 31  1  0
 30 32  1  0
 32 33  2  0
 33 34  1  0
 24  7  1  0
 33 26  1  0
 22 14  1  0
  1 35  1  0
  2 36  1  0
  2 37  1  0
  3 38  1  6
  4 39  1  0
  4 40  1  0
  8 41  1  0
  8 42  1  0
  9 43  1  0
  9 44  1  0
 10 45  1  0
 10 46  1  0
 15 47  1  0
 16 48  1  0
 17 49  1  0
 21 50  1  0
 22 51  1  0
 23 52  1  0
 23 53  1  0
 24 54  1  0
 24 55  1  0
 25 56  1  0
 25 57  1  0
 27 58  1  0
 32 59  1  0
M  END
$$$$
