
     RDKit          3D

 49 49  0  0  0  0  0  0  0  0999 V2000
    5.8027    1.6407    1.5761 C   0  0  0  0  0  0  0  0  0  0  0  0
    5.8729   -0.1760    1.6522 S   0  0  0  0  0  0  0  0  0  0  0  0
    4.1823   -0.3839    1.0903 C   0  0  0  0  0  0  0  0  0  0  0  0
    3.9073   -0.5020   -0.2758 C   0  0  0  0  0  0  0  0  0  0  0  0
    2.5906   -0.6641   -0.7155 C   0  0  0  0  0  0  0  0  0  0  0  0
    1.5302   -0.7148    0.2099 C   0  0  0  0  0  0  0  0  0  0  0  0
    0.0916   -0.8747   -0.2535 C   0  0  2  0  0  0  0  0  0  0  0  0
   -0.0770   -2.2097   -0.9985 C   0  0  0  0  0  0  0  0  0  0  0  0
   -0.3651    0.3365   -1.1205 C   0  0  2  0  0  0  0  0  0  0  0  0
   -0.1285    1.6234   -0.4550 N   0  0  0  0  0  0  0  0  0  0  0  0
   -1.8181    0.2221   -1.5342 C   0  0  0  0  0  0  0  0  0  0  0  0
   -2.0766    0.0477   -2.7565 O   0  0  0  0  0  0  0  0  0  0  0  0
   -2.9043    0.2258   -0.5866 N   0  0  0  0  0  0  0  0  0  0  0  0
   -2.9108    0.9333    0.6843 C   0  0  0  0  0  0  0  0  0  0  0  0
   -4.3485    0.8700    1.1845 C   0  0  0  0  0  0  0  0  0  0  0  0
   -5.0210   -0.2372    0.3782 C   0  0  2  0  0  0  0  0  0  0  0  0
   -4.9889   -1.4221    1.0958 F   0  0  0  0  0  0  0  0  0  0  0  0
   -4.1900   -0.3794   -0.8898 C   0  0  0  0  0  0  0  0  0  0  0  0
    1.8187   -0.5981    1.5818 C   0  0  0  0  0  0  0  0  0  0  0  0
    3.1368   -0.4361    2.0177 C   0  0  0  0  0  0  0  0  0  0  0  0
    0.7640    0.0105   -1.5410 O   0  0  0  0  0  0  0  0  0  0  0  0
    0.4725    0.0180   -0.3150 C   0  0  0  0  0  0  0  0  0  0  0  0
    1.4853   -0.0234    0.6386 O   0  0  0  0  0  0  0  0  0  0  0  0
   -0.9591    0.0112    0.1134 C   0  0  0  0  0  0  0  0  0  0  0  0
   -1.4396   -1.2843    0.0864 F   0  0  0  0  0  0  0  0  0  0  0  0
   -1.7121    0.7953   -0.7418 F   0  0  0  0  0  0  0  0  0  0  0  0
   -1.0706    0.5113    1.3979 F   0  0  0  0  0  0  0  0  0  0  0  0
    6.7817    2.0550    1.8929 H   0  0  0  0  0  0  0  0  0  0  0  0
    5.0134    2.0206    2.2580 H   0  0  0  0  0  0  0  0  0  0  0  0
    5.5913    1.9709    0.5375 H   0  0  0  0  0  0  0  0  0  0  0  0
    4.7125   -0.4638   -0.9984 H   0  0  0  0  0  0  0  0  0  0  0  0
    2.4006   -0.7467   -1.7776 H   0  0  0  0  0  0  0  0  0  0  0  0
   -0.5671   -0.9336    0.6387 H   0  0  0  0  0  0  0  0  0  0  0  0
    0.4563   -2.1949   -1.9724 H   0  0  0  0  0  0  0  0  0  0  0  0
   -1.1521   -2.4141   -1.1874 H   0  0  0  0  0  0  0  0  0  0  0  0
    0.3223   -3.0443   -0.3830 H   0  0  0  0  0  0  0  0  0  0  0  0
    0.2385    0.3269   -2.0579 H   0  0  0  0  0  0  0  0  0  0  0  0
    0.8630    1.9113   -0.6238 H   0  0  0  0  0  0  0  0  0  0  0  0
   -0.2314    1.5217    0.5802 H   0  0  0  0  0  0  0  0  0  0  0  0
   -2.2372    0.4301    1.4079 H   0  0  0  0  0  0  0  0  0  0  0  0
   -2.6074    1.9927    0.5420 H   0  0  0  0  0  0  0  0  0  0  0  0
   -4.8578    1.8371    0.9770 H   0  0  0  0  0  0  0  0  0  0  0  0
   -4.3909    0.6671    2.2769 H   0  0  0  0  0  0  0  0  0  0  0  0
   -6.0768    0.0190    0.1427 H   0  0  0  0  0  0  0  0  0  0  0  0
   -4.0597   -1.4490   -1.1643 H   0  0  0  0  0  0  0  0  0  0  0  0
   -4.6708    0.1677   -1.7298 H   0  0  0  0  0  0  0  0  0  0  0  0
    1.0238   -0.6288    2.3164 H   0  0  0  0  0  0  0  0  0  0  0  0
    3.3436   -0.3464    3.0766 H   0  0  0  0  0  0  0  0  0  0  0  0
    2.4596   -0.0385    0.3615 H   0  0  0  0  0  0  0  0  0  0  0  0
  1  2  1  0
  2  3  1  0
  3  4  2  0
  4  5  1  0
  5  6  2  0
  6  7  1  0
  7  8  1  0
  7  9  1  0
  9 10  1  0
  9 11  1  0
 11 12  2  0
 11 13  1  0
 13 14  1  0
 14 15  1  0
 15 16  1  0
 16 17  1  0
 16 18  1  0
  6 19  1  0
 19 20  2  0
 21 22  2  0
 22 23  1  0
 22 24  1  0
 24 25  1  0
 24 26  1  0
 24 27  1  0
 20  3  1  0
 18 13  1  0
  1 28  1  0
  1 29  1  0
  1 30  1  0
  4 31  1  0
  5 32  1  0
  7 33  1  1
  8 34  1  0
  8 35  1  0
  8 36  1  0
  9 37  1  6
 10 38  1  0
 10 39  1  0
 14 40  1  0
 14 41  1  0
 15 42  1  0
 15 43  1  0
 16 44  1  6
 18 45  1  0
 18 46  1  0
 19 47  1  0
 20 48  1  0
 23 49  1  0
M  END
$$$$
