
     RDKit          3D

 61 65  0  0  0  0  0  0  0  0999 V2000
   -3.0341    4.9190    0.1655 C   0  0  0  0  0  0  0  0  0  0  0  0
   -2.5589    3.6276   -0.3299 C   0  0  0  0  0  0  0  0  0  0  0  0
   -2.1676    2.5624   -0.7355 C   0  0  0  0  0  0  0  0  0  0  0  0
   -1.6930    1.2635   -1.2210 C   0  0  0  0  0  0  0  0  0  0  0  0
   -1.4169    0.3775   -0.0871 N   0  0  0  0  0  0  0  0  0  0  0  0
   -2.2610   -0.5520    0.4382 C   0  0  0  0  0  0  0  0  0  0  0  0
   -3.5598   -0.8483   -0.0935 N   0  0  0  0  0  0  0  0  0  0  0  0
   -4.7205   -0.1964    0.5342 C   0  0  0  0  0  0  0  0  0  0  0  0
   -6.0609   -0.6235   -0.0812 C   0  0  0  0  0  0  0  0  0  0  0  0
   -6.4031   -2.1051    0.1674 C   0  0  0  0  0  0  0  0  0  0  0  0
   -5.2489   -3.0145    0.0952 N   0  0  0  0  0  0  0  0  0  0  0  0
   -4.5000   -2.9302   -1.1671 C   0  0  0  0  0  0  0  0  0  0  0  0
   -3.6588   -1.6410   -1.3297 C   0  0  0  0  0  0  0  0  0  0  0  0
   -1.7254   -1.1208    1.5886 C   0  0  0  0  0  0  0  0  0  0  0  0
   -2.3212   -2.1117    2.4440 C   0  0  0  0  0  0  0  0  0  0  0  0
   -2.7994   -2.9084    3.1336 N   0  0  0  0  0  0  0  0  0  0  0  0
   -0.5126   -0.4992    1.7578 C   0  0  0  0  0  0  0  0  0  0  0  0
    0.4004   -0.6635    2.7406 N   0  0  0  0  0  0  0  0  0  0  0  0
    1.5282    0.1036    2.7175 C   0  0  0  0  0  0  0  0  0  0  0  0
    1.7270    1.0430    1.7284 N   0  0  0  0  0  0  0  0  0  0  0  0
    2.9710    1.8270    1.7316 C   0  0  0  0  0  0  0  0  0  0  0  0
    4.0009    1.1530    0.8811 C   0  0  0  0  0  0  0  0  0  0  0  0
    4.1183    1.4809   -0.4320 N   0  0  0  0  0  0  0  0  0  0  0  0
    5.0111    0.8600   -1.2486 C   0  0  0  0  0  0  0  0  0  0  0  0
    5.0796    1.2850   -2.6866 C   0  0  0  0  0  0  0  0  0  0  0  0
    5.8330   -0.1608   -0.7232 C   0  0  0  0  0  0  0  0  0  0  0  0
    6.7826   -0.8569   -1.4975 C   0  0  0  0  0  0  0  0  0  0  0  0
    7.5625   -1.8616   -0.9163 C   0  0  0  0  0  0  0  0  0  0  0  0
    7.4055   -2.1827    0.4342 C   0  0  0  0  0  0  0  0  0  0  0  0
    6.4678   -1.5005    1.2131 C   0  0  0  0  0  0  0  0  0  0  0  0
    5.6826   -0.4920    0.6430 C   0  0  0  0  0  0  0  0  0  0  0  0
    4.7722    0.1661    1.4049 N   0  0  0  0  0  0  0  0  0  0  0  0
    0.7953    1.2038    0.7258 C   0  0  0  0  0  0  0  0  0  0  0  0
    0.9708    2.0530   -0.1897 O   0  0  0  0  0  0  0  0  0  0  0  0
   -0.3491    0.4023    0.7483 C   0  0  0  0  0  0  0  0  0  0  0  0
   -2.2463    5.3878    0.7904 H   0  0  0  0  0  0  0  0  0  0  0  0
   -3.9483    4.7671    0.7754 H   0  0  0  0  0  0  0  0  0  0  0  0
   -3.2681    5.5814   -0.6932 H   0  0  0  0  0  0  0  0  0  0  0  0
   -2.4687    0.8265   -1.8807 H   0  0  0  0  0  0  0  0  0  0  0  0
   -0.7810    1.4005   -1.8368 H   0  0  0  0  0  0  0  0  0  0  0  0
   -4.6154    0.9048    0.4254 H   0  0  0  0  0  0  0  0  0  0  0  0
   -4.7338   -0.4278    1.6217 H   0  0  0  0  0  0  0  0  0  0  0  0
   -6.0731   -0.4053   -1.1697 H   0  0  0  0  0  0  0  0  0  0  0  0
   -6.8667   -0.0008    0.3646 H   0  0  0  0  0  0  0  0  0  0  0  0
   -7.1757   -2.4296   -0.5628 H   0  0  0  0  0  0  0  0  0  0  0  0
   -6.8579   -2.1991    1.1777 H   0  0  0  0  0  0  0  0  0  0  0  0
   -4.6182   -2.8901    0.9193 H   0  0  0  0  0  0  0  0  0  0  0  0
   -3.8163   -3.8053   -1.2143 H   0  0  0  0  0  0  0  0  0  0  0  0
   -5.1971   -3.0342   -2.0277 H   0  0  0  0  0  0  0  0  0  0  0  0
   -4.0905   -1.0108   -2.1359 H   0  0  0  0  0  0  0  0  0  0  0  0
   -2.6425   -1.9259   -1.6836 H   0  0  0  0  0  0  0  0  0  0  0  0
    2.2674   -0.0370    3.4966 H   0  0  0  0  0  0  0  0  0  0  0  0
    3.3622    1.9399    2.7671 H   0  0  0  0  0  0  0  0  0  0  0  0
    2.7860    2.8585    1.3591 H   0  0  0  0  0  0  0  0  0  0  0  0
    4.8374    0.4259   -3.3470 H   0  0  0  0  0  0  0  0  0  0  0  0
    4.3492    2.0972   -2.8886 H   0  0  0  0  0  0  0  0  0  0  0  0
    6.0965    1.6637   -2.9214 H   0  0  0  0  0  0  0  0  0  0  0  0
    6.9283   -0.6338   -2.5461 H   0  0  0  0  0  0  0  0  0  0  0  0
    8.2905   -2.3936   -1.5152 H   0  0  0  0  0  0  0  0  0  0  0  0
    8.0117   -2.9619    0.8780 H   0  0  0  0  0  0  0  0  0  0  0  0
    6.3529   -1.7566    2.2591 H   0  0  0  0  0  0  0  0  0  0  0  0
  1  2  1  0
  2  3  3  0
  3  4  1  0
  4  5  1  0
  5  6  1  0
  6  7  1  0
  7  8  1  0
  8  9  1  0
  9 10  1  0
 10 11  1  0
 11 12  1  0
 12 13  1  0
  6 14  2  0
 14 15  1  0
 15 16  3  0
 14 17  1  0
 17 18  1  0
 18 19  2  0
 19 20  1  0
 20 21  1  0
 21 22  1  0
 22 23  2  0
 23 24  1  0
 24 25  1  0
 24 26  2  0
 26 27  1  0
 27 28  2  0
 28 29  1  0
 29 30  2  0
 30 31  1  0
 31 32  2  0
 20 33  1  0
 33 34  2  0
 33 35  1  0
 35  5  1  0
 13  7  1  0
 35 17  2  0
 32 22  1  0
 31 26  1  0
  1 36  1  0
  1 37  1  0
  1 38  1  0
  4 39  1  0
  4 40  1  0
  8 41  1  0
  8 42  1  0
  9 43  1  0
  9 44  1  0
 10 45  1  0
 10 46  1  0
 11 47  1  0
 12 48  1  0
 12 49  1  0
 13 50  1  0
 13 51  1  0
 19 52  1  0
 21 53  1  0
 21 54  1  0
 25 55  1  0
 25 56  1  0
 25 57  1  0
 27 58  1  0
 28 59  1  0
 29 60  1  0
 30 61  1  0
M  END
$$$$
