
     RDKit          3D

 43 45  0  0  0  0  0  0  0  0999 V2000
    2.0888   -2.1347    0.1839 N   0  0  0  0  0  0  0  0  0  0  0  0
    1.1796   -0.9862    0.1482 C   0  0  1  0  0  0  0  0  0  0  0  0
    1.4260   -0.0559    1.3610 C   0  0  0  0  0  0  0  0  0  0  0  0
    0.3969    1.0411    1.4692 C   0  0  0  0  0  0  0  0  0  0  0  0
    0.7941    2.2378    1.4976 O   0  0  0  0  0  0  0  0  0  0  0  0
   -1.0182    0.7616    1.5125 N   0  0  0  0  0  0  0  0  0  0  0  0
   -1.5457   -0.3698    2.3006 C   0  0  0  0  0  0  0  0  0  0  0  0
   -2.6938   -1.0612    1.5513 C   0  0  0  0  0  0  0  0  0  0  0  0
   -3.5983   -0.0586    0.9968 N   0  0  0  0  0  0  0  0  0  0  0  0
   -3.2764    1.2101    0.7128 C   0  0  0  0  0  0  0  0  0  0  0  0
   -4.2931    1.8609    0.1168 N   0  0  0  0  0  0  0  0  0  0  0  0
   -5.2819    0.9841   -0.0090 N   0  0  0  0  0  0  0  0  0  0  0  0
   -4.8493   -0.1824    0.5153 C   0  0  0  0  0  0  0  0  0  0  0  0
   -5.6652   -1.4381    0.5547 C   0  0  0  0  0  0  0  0  0  0  0  0
   -6.8640   -1.2494   -0.1091 F   0  0  0  0  0  0  0  0  0  0  0  0
   -4.9702   -2.4652   -0.0561 F   0  0  0  0  0  0  0  0  0  0  0  0
   -5.9264   -1.7789    1.8685 F   0  0  0  0  0  0  0  0  0  0  0  0
   -1.9512    1.8086    1.0605 C   0  0  0  0  0  0  0  0  0  0  0  0
    1.2674   -0.2629   -1.2183 C   0  0  0  0  0  0  0  0  0  0  0  0
    2.6584    0.2264   -1.5690 C   0  0  0  0  0  0  0  0  0  0  0  0
    3.0457    1.5232   -1.1868 C   0  0  0  0  0  0  0  0  0  0  0  0
    4.3260    1.9994   -1.4770 C   0  0  0  0  0  0  0  0  0  0  0  0
    5.2359    1.1904   -2.1598 C   0  0  0  0  0  0  0  0  0  0  0  0
    6.8434    1.7909   -2.5235 Cl  0  0  0  0  0  0  0  0  0  0  0  0
    4.8623   -0.0951   -2.5595 C   0  0  0  0  0  0  0  0  0  0  0  0
    3.5810   -0.5829   -2.2738 C   0  0  0  0  0  0  0  0  0  0  0  0
    3.1714   -2.2013   -2.8359 Cl  0  0  0  0  0  0  0  0  0  0  0  0
    3.0692   -1.8010    0.3325 H   0  0  0  0  0  0  0  0  0  0  0  0
    1.8416   -2.7298    1.0081 H   0  0  0  0  0  0  0  0  0  0  0  0
    0.1444   -1.3832    0.2244 H   0  0  0  0  0  0  0  0  0  0  0  0
    2.4416    0.3891    1.2894 H   0  0  0  0  0  0  0  0  0  0  0  0
    1.4204   -0.6482    2.2995 H   0  0  0  0  0  0  0  0  0  0  0  0
   -1.9229    0.0160    3.2724 H   0  0  0  0  0  0  0  0  0  0  0  0
   -0.7654   -1.1245    2.5216 H   0  0  0  0  0  0  0  0  0  0  0  0
   -2.2811   -1.6740    0.7218 H   0  0  0  0  0  0  0  0  0  0  0  0
   -3.2432   -1.7280    2.2494 H   0  0  0  0  0  0  0  0  0  0  0  0
   -2.0876    2.5583    1.8684 H   0  0  0  0  0  0  0  0  0  0  0  0
   -1.5468    2.3152    0.1573 H   0  0  0  0  0  0  0  0  0  0  0  0
    0.5579    0.5931   -1.2290 H   0  0  0  0  0  0  0  0  0  0  0  0
    0.8975   -0.9479   -2.0102 H   0  0  0  0  0  0  0  0  0  0  0  0
    2.3541    2.1703   -0.6643 H   0  0  0  0  0  0  0  0  0  0  0  0
    4.6086    2.9988   -1.1716 H   0  0  0  0  0  0  0  0  0  0  0  0
    5.5685   -0.7156   -3.0971 H   0  0  0  0  0  0  0  0  0  0  0  0
  1  2  1  0
  2  3  1  0
  3  4  1  0
  4  5  2  0
  4  6  1  0
  6  7  1  0
  7  8  1  0
  8  9  1  0
  9 10  1  0
 10 11  2  0
 11 12  1  0
 12 13  2  0
 13 14  1  0
 14 15  1  0
 14 16  1  0
 14 17  1  0
 10 18  1  0
  2 19  1  0
 19 20  1  0
 20 21  2  0
 21 22  1  0
 22 23  2  0
 23 24  1  0
 23 25  1  0
 25 26  2  0
 26 27  1  0
 18  6  1  0
 26 20  1  0
 13  9  1  0
  1 28  1  0
  1 29  1  0
  2 30  1  1
  3 31  1  0
  3 32  1  0
  7 33  1  0
  7 34  1  0
  8 35  1  0
  8 36  1  0
 18 37  1  0
 18 38  1  0
 19 39  1  0
 19 40  1  0
 21 41  1  0
 22 42  1  0
 25 43  1  0
M  END
$$$$
