
     RDKit          3D

 60 63  0  0  0  0  0  0  0  0999 V2000
   -4.6185   -3.5068    3.0011 C   0  0  0  0  0  0  0  0  0  0  0  0
   -3.6976   -3.0363    1.9669 C   0  0  0  0  0  0  0  0  0  0  0  0
   -2.9407   -2.6445    1.1149 C   0  0  0  0  0  0  0  0  0  0  0  0
   -2.0229   -2.1596    0.0789 C   0  0  0  0  0  0  0  0  0  0  0  0
   -1.3445   -0.9311    0.5368 N   0  0  0  0  0  0  0  0  0  0  0  0
   -1.8731    0.3033    0.2538 C   0  0  0  0  0  0  0  0  0  0  0  0
   -3.0818    0.4427   -0.5075 N   0  0  0  0  0  0  0  0  0  0  0  0
   -3.0116    0.5932   -1.9644 C   0  0  0  0  0  0  0  0  0  0  0  0
   -3.7923    1.8386   -2.3957 C   0  0  0  0  0  0  0  0  0  0  0  0
   -5.2107    1.9151   -1.7811 C   0  0  0  0  0  0  0  0  0  0  0  0
   -5.5248    0.7782   -0.7853 C   0  0  2  0  0  0  0  0  0  0  0  0
   -6.7566    1.0769   -0.0540 N   0  0  0  0  0  0  0  0  0  0  0  0
   -4.3588    0.5914    0.2008 C   0  0  0  0  0  0  0  0  0  0  0  0
   -1.2322    1.4553    0.6969 C   0  0  0  0  0  0  0  0  0  0  0  0
   -0.0682    1.3403    1.4439 C   0  0  0  0  0  0  0  0  0  0  0  0
    0.5167    2.3914    1.8254 O   0  0  0  0  0  0  0  0  0  0  0  0
    0.4311    0.1042    1.7581 N   0  0  0  0  0  0  0  0  0  0  0  0
    1.6799   -0.0106    2.5369 C   0  0  0  0  0  0  0  0  0  0  0  0
    2.8575   -0.0410    1.6140 C   0  0  0  0  0  0  0  0  0  0  0  0
    3.3036   -1.2256    1.1212 N   0  0  0  0  0  0  0  0  0  0  0  0
    4.3419   -1.2917    0.2454 C   0  0  0  0  0  0  0  0  0  0  0  0
    4.7744   -2.6420   -0.2476 C   0  0  0  0  0  0  0  0  0  0  0  0
    4.9699   -0.0976   -0.1726 C   0  0  0  0  0  0  0  0  0  0  0  0
    6.0494   -0.0747   -1.0782 C   0  0  0  0  0  0  0  0  0  0  0  0
    6.6373    1.1445   -1.4518 C   0  0  0  0  0  0  0  0  0  0  0  0
    7.7607    1.1657   -2.4461 C   0  0  0  0  0  0  0  0  0  0  0  0
    6.1241    2.3468   -0.9436 C   0  0  0  0  0  0  0  0  0  0  0  0
    5.0546    2.3342   -0.0458 C   0  0  0  0  0  0  0  0  0  0  0  0
    4.4782    1.1217    0.3443 C   0  0  0  0  0  0  0  0  0  0  0  0
    3.4375    1.1199    1.2156 N   0  0  0  0  0  0  0  0  0  0  0  0
   -0.2021   -1.0258    1.2973 C   0  0  0  0  0  0  0  0  0  0  0  0
    0.2707   -2.1647    1.5762 O   0  0  0  0  0  0  0  0  0  0  0  0
   -4.0958   -3.5290    3.9794 H   0  0  0  0  0  0  0  0  0  0  0  0
   -5.4876   -2.8199    3.0617 H   0  0  0  0  0  0  0  0  0  0  0  0
   -4.9707   -4.5275    2.7464 H   0  0  0  0  0  0  0  0  0  0  0  0
   -2.5911   -1.9897   -0.8575 H   0  0  0  0  0  0  0  0  0  0  0  0
   -1.2858   -2.9570   -0.1560 H   0  0  0  0  0  0  0  0  0  0  0  0
   -3.4481   -0.3060   -2.4499 H   0  0  0  0  0  0  0  0  0  0  0  0
   -1.9556    0.6833   -2.3027 H   0  0  0  0  0  0  0  0  0  0  0  0
   -3.2145    2.7374   -2.0867 H   0  0  0  0  0  0  0  0  0  0  0  0
   -3.8613    1.8564   -3.5051 H   0  0  0  0  0  0  0  0  0  0  0  0
   -5.3225    2.8935   -1.2629 H   0  0  0  0  0  0  0  0  0  0  0  0
   -5.9645    1.8918   -2.5984 H   0  0  0  0  0  0  0  0  0  0  0  0
   -5.6632   -0.1694   -1.3556 H   0  0  0  0  0  0  0  0  0  0  0  0
   -7.5407    1.1392   -0.7438 H   0  0  0  0  0  0  0  0  0  0  0  0
   -6.9793    0.2608    0.5617 H   0  0  0  0  0  0  0  0  0  0  0  0
   -4.3005    1.4726    0.8770 H   0  0  0  0  0  0  0  0  0  0  0  0
   -4.5451   -0.3108    0.8206 H   0  0  0  0  0  0  0  0  0  0  0  0
   -1.6376    2.4317    0.4581 H   0  0  0  0  0  0  0  0  0  0  0  0
    1.6729   -0.9260    3.1682 H   0  0  0  0  0  0  0  0  0  0  0  0
    1.7849    0.8357    3.2507 H   0  0  0  0  0  0  0  0  0  0  0  0
    5.8331   -2.8259    0.0317 H   0  0  0  0  0  0  0  0  0  0  0  0
    4.6623   -2.6958   -1.3509 H   0  0  0  0  0  0  0  0  0  0  0  0
    4.1501   -3.4412    0.2058 H   0  0  0  0  0  0  0  0  0  0  0  0
    6.4399   -0.9930   -1.4977 H   0  0  0  0  0  0  0  0  0  0  0  0
    8.3902    0.2560   -2.3444 H   0  0  0  0  0  0  0  0  0  0  0  0
    7.3431    1.2043   -3.4738 H   0  0  0  0  0  0  0  0  0  0  0  0
    8.4114    2.0517   -2.2860 H   0  0  0  0  0  0  0  0  0  0  0  0
    6.5529    3.2954   -1.2423 H   0  0  0  0  0  0  0  0  0  0  0  0
    4.6723    3.2700    0.3433 H   0  0  0  0  0  0  0  0  0  0  0  0
  1  2  1  0
  2  3  3  0
  3  4  1  0
  4  5  1  0
  5  6  1  0
  6  7  1  0
  7  8  1  0
  8  9  1  0
  9 10  1  0
 10 11  1  0
 11 12  1  0
 11 13  1  0
  6 14  2  0
 14 15  1  0
 15 16  2  0
 15 17  1  0
 17 18  1  0
 18 19  1  0
 19 20  2  0
 20 21  1  0
 21 22  1  0
 21 23  2  0
 23 24  1  0
 24 25  2  0
 25 26  1  0
 25 27  1  0
 27 28  2  0
 28 29  1  0
 29 30  2  0
 17 31  1  0
 31 32  2  0
 31  5  1  0
 13  7  1  0
 30 19  1  0
 29 23  1  0
  1 33  1  0
  1 34  1  0
  1 35  1  0
  4 36  1  0
  4 37  1  0
  8 38  1  0
  8 39  1  0
  9 40  1  0
  9 41  1  0
 10 42  1  0
 10 43  1  0
 11 44  1  6
 12 45  1  0
 12 46  1  0
 13 47  1  0
 13 48  1  0
 14 49  1  0
 18 50  1  0
 18 51  1  0
 22 52  1  0
 22 53  1  0
 22 54  1  0
 24 55  1  0
 26 56  1  0
 26 57  1  0
 26 58  1  0
 27 59  1  0
 28 60  1  0
M  END
$$$$
