
     RDKit          3D

 54 56  0  0  0  0  0  0  0  0999 V2000
   -2.2311   -2.1342    1.3310 N   0  0  0  0  0  0  0  0  0  0  0  0
   -2.7383   -0.8026    0.9856 C   0  0  1  0  0  0  0  0  0  0  0  0
   -1.5706    0.1984    0.8304 C   0  0  0  0  0  0  0  0  0  0  0  0
   -0.5338   -0.2479   -0.1709 C   0  0  0  0  0  0  0  0  0  0  0  0
   -0.6837    0.0742   -1.3801 O   0  0  0  0  0  0  0  0  0  0  0  0
    0.5877   -1.0726    0.2027 N   0  0  0  0  0  0  0  0  0  0  0  0
    1.2636   -1.9218   -0.7650 C   0  0  0  0  0  0  0  0  0  0  0  0
    2.3252   -2.6877    0.0136 C   0  0  0  0  0  0  0  0  0  0  0  0
    1.9800   -2.5063    1.4894 C   0  0  0  0  0  0  0  0  0  0  0  0
    1.0785   -1.2695    1.5625 C   0  0  1  0  0  0  0  0  0  0  0  0
    1.8323   -0.0236    2.0785 C   0  0  0  0  0  0  0  0  0  0  0  0
    3.0047    0.2886    1.2577 N   0  0  0  0  0  0  0  0  0  0  0  0
    2.9195    1.0783    0.0571 C   0  0  0  0  0  0  0  0  0  0  0  0
    1.8584    1.7151   -0.1851 O   0  0  0  0  0  0  0  0  0  0  0  0
    4.0727    1.1955   -0.9262 C   0  0  0  0  0  0  0  0  0  0  0  0
    3.7787    1.8137   -2.3106 C   0  0  0  0  0  0  0  0  0  0  0  0
    2.7920    1.0760   -2.9388 F   0  0  0  0  0  0  0  0  0  0  0  0
    3.3328    3.1130   -2.1493 F   0  0  0  0  0  0  0  0  0  0  0  0
    4.8978    1.8350   -3.1271 F   0  0  0  0  0  0  0  0  0  0  0  0
    5.4213    1.5544   -0.3110 C   0  0  0  0  0  0  0  0  0  0  0  0
    5.1887    0.1519   -0.8703 C   0  0  0  0  0  0  0  0  0  0  0  0
   -3.6577   -0.8694   -0.2593 C   0  0  0  0  0  0  0  0  0  0  0  0
   -4.4382    0.4091   -0.4629 C   0  0  0  0  0  0  0  0  0  0  0  0
   -5.4881    0.7295    0.4159 C   0  0  0  0  0  0  0  0  0  0  0  0
   -6.2115    1.9148    0.2538 C   0  0  0  0  0  0  0  0  0  0  0  0
   -7.2198    2.2135    1.1101 F   0  0  0  0  0  0  0  0  0  0  0  0
   -5.8958    2.7900   -0.7889 C   0  0  0  0  0  0  0  0  0  0  0  0
   -6.5966    3.9401   -0.9476 F   0  0  0  0  0  0  0  0  0  0  0  0
   -4.8589    2.4784   -1.6719 C   0  0  0  0  0  0  0  0  0  0  0  0
   -4.1313    1.2940   -1.5152 C   0  0  0  0  0  0  0  0  0  0  0  0
   -3.1389    1.0121   -2.3956 F   0  0  0  0  0  0  0  0  0  0  0  0
   -1.8394   -2.5936    0.4765 H   0  0  0  0  0  0  0  0  0  0  0  0
   -3.0328   -2.7235    1.6539 H   0  0  0  0  0  0  0  0  0  0  0  0
   -3.3499   -0.4473    1.8455 H   0  0  0  0  0  0  0  0  0  0  0  0
   -1.1050    0.3584    1.8227 H   0  0  0  0  0  0  0  0  0  0  0  0
   -1.9661    1.1908    0.5250 H   0  0  0  0  0  0  0  0  0  0  0  0
    0.5324   -2.6276   -1.2158 H   0  0  0  0  0  0  0  0  0  0  0  0
    1.7309   -1.3037   -1.5620 H   0  0  0  0  0  0  0  0  0  0  0  0
    3.3264   -2.2533   -0.1916 H   0  0  0  0  0  0  0  0  0  0  0  0
    2.3349   -3.7631   -0.2678 H   0  0  0  0  0  0  0  0  0  0  0  0
    2.8978   -2.4142    2.1107 H   0  0  0  0  0  0  0  0  0  0  0  0
    1.4106   -3.3961    1.8384 H   0  0  0  0  0  0  0  0  0  0  0  0
    0.2340   -1.4901    2.2497 H   0  0  0  0  0  0  0  0  0  0  0  0
    2.1646   -0.2224    3.1208 H   0  0  0  0  0  0  0  0  0  0  0  0
    1.1560    0.8550    2.1271 H   0  0  0  0  0  0  0  0  0  0  0  0
    3.9340    0.0012    1.6335 H   0  0  0  0  0  0  0  0  0  0  0  0
    5.4654    1.5925    0.7978 H   0  0  0  0  0  0  0  0  0  0  0  0
    6.0993    2.1747   -0.9349 H   0  0  0  0  0  0  0  0  0  0  0  0
    5.7458   -0.0380   -1.8115 H   0  0  0  0  0  0  0  0  0  0  0  0
    5.1376   -0.6307   -0.0894 H   0  0  0  0  0  0  0  0  0  0  0  0
   -3.0644   -1.1270   -1.1619 H   0  0  0  0  0  0  0  0  0  0  0  0
   -4.3878   -1.6974   -0.1251 H   0  0  0  0  0  0  0  0  0  0  0  0
   -5.7445    0.0597    1.2276 H   0  0  0  0  0  0  0  0  0  0  0  0
   -4.6191    3.1556   -2.4818 H   0  0  0  0  0  0  0  0  0  0  0  0
  1  2  1  0
  2  3  1  0
  3  4  1  0
  4  5  2  0
  4  6  1  0
  6  7  1  0
  7  8  1  0
  8  9  1  0
  9 10  1  0
 10 11  1  0
 11 12  1  0
 12 13  1  0
 13 14  2  0
 13 15  1  0
 15 16  1  0
 16 17  1  0
 16 18  1  0
 16 19  1  0
 15 20  1  0
 20 21  1  0
  2 22  1  0
 22 23  1  0
 23 24  2  0
 24 25  1  0
 25 26  1  0
 25 27  2  0
 27 28  1  0
 27 29  1  0
 29 30  2  0
 30 31  1  0
 10  6  1  0
 21 15  1  0
 30 23  1  0
  1 32  1  0
  1 33  1  0
  2 34  1  1
  3 35  1  0
  3 36  1  0
  7 37  1  0
  7 38  1  0
  8 39  1  0
  8 40  1  0
  9 41  1  0
  9 42  1  0
 10 43  1  1
 11 44  1  0
 11 45  1  0
 12 46  1  0
 20 47  1  0
 20 48  1  0
 21 49  1  0
 21 50  1  0
 22 51  1  0
 22 52  1  0
 24 53  1  0
 29 54  1  0
M  END
$$$$
