
     RDKit          3D

 68 69  0  0  0  0  0  0  0  0999 V2000
    5.6668   -4.0212   -0.2695 C   0  0  0  0  0  0  0  0  0  0  0  0
    6.1637   -2.6921   -0.3900 O   0  0  0  0  0  0  0  0  0  0  0  0
    5.3895   -1.5313   -0.2259 C   0  0  0  0  0  0  0  0  0  0  0  0
    4.0185   -1.5921    0.0774 C   0  0  0  0  0  0  0  0  0  0  0  0
    3.2647   -0.4223    0.2265 C   0  0  0  0  0  0  0  0  0  0  0  0
    1.8610   -0.5015    0.5446 N   0  0  0  0  0  0  0  0  0  0  0  0
    1.2420   -1.5231    1.3892 C   0  0  0  0  0  0  0  0  0  0  0  0
   -0.2288   -1.0794    1.5873 C   0  0  0  0  0  0  0  0  0  0  0  0
   -0.4066    0.0852    0.7289 N   0  0  0  0  0  0  0  0  0  0  0  0
   -1.6369    0.8665    0.6145 C   0  0  0  0  0  0  0  0  0  0  0  0
   -2.2258    0.7916   -0.8071 C   0  0  0  0  0  0  0  0  0  0  0  0
   -2.5073   -0.5836   -1.2585 N   0  0  0  0  0  0  0  0  0  0  0  0
   -3.7170   -1.1591   -0.6544 C   0  0  0  0  0  0  0  0  0  0  0  0
   -4.9538   -0.5785   -1.2863 C   0  0  0  0  0  0  0  0  0  0  0  0
   -5.1151   -0.7213   -2.5288 O   0  0  0  0  0  0  0  0  0  0  0  0
   -5.9557    0.1140   -0.5124 N   0  0  0  0  0  0  0  0  0  0  0  0
   -5.7656    0.5515    0.8619 C   0  0  0  0  0  0  0  0  0  0  0  0
   -6.8988    1.5266    1.1488 C   0  0  0  0  0  0  0  0  0  0  0  0
   -7.9521    1.2728    0.0754 C   0  0  0  0  0  0  0  0  0  0  0  0
   -7.2145    0.5853   -1.0756 C   0  0  2  0  0  0  0  0  0  0  0  0
   -8.0022   -0.5381   -1.6120 C   0  0  0  0  0  0  0  0  0  0  0  0
   -8.6204   -1.4209   -2.0336 N   0  0  0  0  0  0  0  0  0  0  0  0
    0.8445    0.4062    0.1591 C   0  0  0  0  0  0  0  0  0  0  0  0
    1.0210    1.3680   -0.6358 O   0  0  0  0  0  0  0  0  0  0  0  0
    3.9007    0.8195    0.0946 C   0  0  0  0  0  0  0  0  0  0  0  0
    5.2736    0.9064   -0.2089 C   0  0  0  0  0  0  0  0  0  0  0  0
    5.9028    2.1544   -0.3438 O   0  0  0  0  0  0  0  0  0  0  0  0
    5.2568    3.4164   -0.2078 C   0  0  0  0  0  0  0  0  0  0  0  0
    6.0227   -0.2868   -0.3742 C   0  0  0  0  0  0  0  0  0  0  0  0
    7.3968   -0.3108   -0.6828 O   0  0  0  0  0  0  0  0  0  0  0  0
    8.2420    0.8164   -0.8850 C   0  0  0  0  0  0  0  0  0  0  0  0
   -1.0022   -0.3500    1.5023 O   0  0  0  0  0  0  0  0  0  0  0  0
   -0.7012   -0.0950    0.3058 C   0  0  0  0  0  0  0  0  0  0  0  0
   -1.7023    0.0059   -0.6556 O   0  0  0  0  0  0  0  0  0  0  0  0
    0.7012    0.0950   -0.0726 C   0  0  0  0  0  0  0  0  0  0  0  0
    1.0022    0.3500   -1.2691 O   0  0  0  0  0  0  0  0  0  0  0  0
    1.7023   -0.0059    0.8888 O   0  0  0  0  0  0  0  0  0  0  0  0
    6.4967   -4.7355   -0.4467 H   0  0  0  0  0  0  0  0  0  0  0  0
    5.2666   -4.1884    0.7528 H   0  0  0  0  0  0  0  0  0  0  0  0
    4.8746   -4.2030   -1.0261 H   0  0  0  0  0  0  0  0  0  0  0  0
    3.5298   -2.5494    0.1835 H   0  0  0  0  0  0  0  0  0  0  0  0
    1.7698   -1.5849    2.3653 H   0  0  0  0  0  0  0  0  0  0  0  0
    1.2728   -2.5086    0.8772 H   0  0  0  0  0  0  0  0  0  0  0  0
   -0.4083   -0.7947    2.6465 H   0  0  0  0  0  0  0  0  0  0  0  0
   -0.9321   -1.8865    1.2893 H   0  0  0  0  0  0  0  0  0  0  0  0
   -1.4163    1.9276    0.8593 H   0  0  0  0  0  0  0  0  0  0  0  0
   -2.3783    0.5130    1.3599 H   0  0  0  0  0  0  0  0  0  0  0  0
   -1.5045    1.2486   -1.5166 H   0  0  0  0  0  0  0  0  0  0  0  0
   -3.1444    1.4150   -0.8587 H   0  0  0  0  0  0  0  0  0  0  0  0
   -1.6915   -1.2044   -1.0514 H   0  0  0  0  0  0  0  0  0  0  0  0
   -3.7275   -2.2529   -0.8526 H   0  0  0  0  0  0  0  0  0  0  0  0
   -3.7118   -1.0516    0.4477 H   0  0  0  0  0  0  0  0  0  0  0  0
   -5.8223   -0.3247    1.5433 H   0  0  0  0  0  0  0  0  0  0  0  0
   -4.7885    1.0654    0.9805 H   0  0  0  0  0  0  0  0  0  0  0  0
   -6.5243    2.5704    1.0592 H   0  0  0  0  0  0  0  0  0  0  0  0
   -7.3137    1.3757    2.1692 H   0  0  0  0  0  0  0  0  0  0  0  0
   -8.7462    0.6190    0.5032 H   0  0  0  0  0  0  0  0  0  0  0  0
   -8.4178    2.2253   -0.2596 H   0  0  0  0  0  0  0  0  0  0  0  0
   -7.0067    1.3151   -1.8882 H   0  0  0  0  0  0  0  0  0  0  0  0
    3.3274    1.7194    0.2580 H   0  0  0  0  0  0  0  0  0  0  0  0
    4.8438    3.5260    0.8171 H   0  0  0  0  0  0  0  0  0  0  0  0
    4.4475    3.5151   -0.9619 H   0  0  0  0  0  0  0  0  0  0  0  0
    5.9994    4.2225   -0.3779 H   0  0  0  0  0  0  0  0  0  0  0  0
    7.8807    1.4192   -1.7446 H   0  0  0  0  0  0  0  0  0  0  0  0
    9.2654    0.4589   -1.1195 H   0  0  0  0  0  0  0  0  0  0  0  0
    8.2934    1.4297    0.0390 H   0  0  0  0  0  0  0  0  0  0  0  0
   -2.6760   -0.1232   -0.4074 H   0  0  0  0  0  0  0  0  0  0  0  0
    2.6760    0.1232    0.6406 H   0  0  0  0  0  0  0  0  0  0  0  0
  1  2  1  0
  2  3  1  0
  3  4  2  0
  4  5  1  0
  5  6  1  0
  6  7  1  0
  7  8  1  0
  8  9  1  0
  9 10  1  0
 10 11  1  0
 11 12  1  0
 12 13  1  0
 13 14  1  0
 14 15  2  0
 14 16  1  0
 16 17  1  0
 17 18  1  0
 18 19  1  0
 19 20  1  0
 20 21  1  0
 21 22  3  0
  9 23  1  0
 23 24  2  0
  5 25  2  0
 25 26  1  0
 26 27  1  0
 27 28  1  0
 26 29  2  0
 29 30  1  0
 30 31  1  0
 32 33  2  0
 33 34  1  0
 33 35  1  0
 35 36  2  0
 35 37  1  0
 29  3  1  0
 23  6  1  0
 20 16  1  0
  1 38  1  0
  1 39  1  0
  1 40  1  0
  4 41  1  0
  7 42  1  0
  7 43  1  0
  8 44  1  0
  8 45  1  0
 10 46  1  0
 10 47  1  0
 11 48  1  0
 11 49  1  0
 12 50  1  0
 13 51  1  0
 13 52  1  0
 17 53  1  0
 17 54  1  0
 18 55  1  0
 18 56  1  0
 19 57  1  0
 19 58  1  0
 20 59  1  6
 25 60  1  0
 28 61  1  0
 28 62  1  0
 28 63  1  0
 31 64  1  0
 31 65  1  0
 31 66  1  0
 34 67  1  0
 37 68  1  0
M  END
$$$$
