
     RDKit          3D

 46 49  0  0  0  0  0  0  0  0999 V2000
    1.2763   -0.4287   -2.7188 N   0  0  0  0  0  0  0  0  0  0  0  0
    1.9762   -0.8010   -1.8761 C   0  0  0  0  0  0  0  0  0  0  0  0
    2.8573   -1.2625   -0.8313 C   0  0  0  0  0  0  0  0  0  0  0  0
    4.1657   -1.6303   -1.1757 C   0  0  0  0  0  0  0  0  0  0  0  0
    5.0524   -2.0842   -0.1975 C   0  0  0  0  0  0  0  0  0  0  0  0
    4.6392   -2.1765    1.1315 C   0  0  0  0  0  0  0  0  0  0  0  0
    3.3387   -1.8130    1.4880 C   0  0  0  0  0  0  0  0  0  0  0  0
    2.4339   -1.3449    0.5172 C   0  0  0  0  0  0  0  0  0  0  0  0
    1.0264   -0.9669    0.9418 C   0  0  0  0  0  0  0  0  0  0  0  0
    0.6945    0.4436    0.6312 N   0  0  0  0  0  0  0  0  0  0  0  0
   -0.5123    0.7666    0.0180 C   0  0  0  0  0  0  0  0  0  0  0  0
   -1.5495   -0.2140   -0.1622 N   0  0  0  0  0  0  0  0  0  0  0  0
   -2.1794   -0.3477   -1.4828 C   0  0  0  0  0  0  0  0  0  0  0  0
   -3.2137   -1.4780   -1.4908 C   0  0  0  0  0  0  0  0  0  0  0  0
   -4.2608   -1.3134   -0.3725 C   0  0  0  0  0  0  0  0  0  0  0  0
   -3.6988   -0.6868    0.9307 C   0  0  1  0  0  0  0  0  0  0  0  0
   -4.3314   -1.2965    2.1015 N   0  0  0  0  0  0  0  0  0  0  0  0
   -2.1723   -0.8381    1.0150 C   0  0  0  0  0  0  0  0  0  0  0  0
   -0.7713    2.0541   -0.3652 N   0  0  0  0  0  0  0  0  0  0  0  0
    0.1370    3.0154   -0.0981 C   0  0  0  0  0  0  0  0  0  0  0  0
    0.0190    4.3202   -0.3847 N   0  0  0  0  0  0  0  0  0  0  0  0
    1.1332    4.8932    0.1262 C   0  0  0  0  0  0  0  0  0  0  0  0
    1.5079    6.7601    0.0222 Br  0  0  0  0  0  0  0  0  0  0  0  0
    1.9499    3.9469    0.7402 C   0  0  0  0  0  0  0  0  0  0  0  0
    1.2804    2.7519    0.5782 C   0  0  0  0  0  0  0  0  0  0  0  0
    1.5705    1.4558    0.9766 C   0  0  0  0  0  0  0  0  0  0  0  0
    2.6163    1.2255    1.6435 O   0  0  0  0  0  0  0  0  0  0  0  0
    4.5011   -1.5668   -2.2042 H   0  0  0  0  0  0  0  0  0  0  0  0
    6.0609   -2.3666   -0.4708 H   0  0  0  0  0  0  0  0  0  0  0  0
    5.3278   -2.5311    1.8876 H   0  0  0  0  0  0  0  0  0  0  0  0
    3.0398   -1.8929    2.5258 H   0  0  0  0  0  0  0  0  0  0  0  0
    0.8740   -1.1368    2.0298 H   0  0  0  0  0  0  0  0  0  0  0  0
    0.3556   -1.6704    0.4089 H   0  0  0  0  0  0  0  0  0  0  0  0
   -1.4028   -0.5709   -2.2437 H   0  0  0  0  0  0  0  0  0  0  0  0
   -2.6768    0.6079   -1.7577 H   0  0  0  0  0  0  0  0  0  0  0  0
   -2.6824   -2.4457   -1.3537 H   0  0  0  0  0  0  0  0  0  0  0  0
   -3.7228   -1.5121   -2.4781 H   0  0  0  0  0  0  0  0  0  0  0  0
   -5.0905   -0.6733   -0.7449 H   0  0  0  0  0  0  0  0  0  0  0  0
   -4.6953   -2.3157   -0.1621 H   0  0  0  0  0  0  0  0  0  0  0  0
   -3.9287    0.4042    0.9235 H   0  0  0  0  0  0  0  0  0  0  0  0
   -5.3613   -1.1218    2.0440 H   0  0  0  0  0  0  0  0  0  0  0  0
   -4.0023   -0.7902    2.9559 H   0  0  0  0  0  0  0  0  0  0  0  0
   -1.9066   -1.9167    1.0509 H   0  0  0  0  0  0  0  0  0  0  0  0
   -1.8032   -0.3597    1.9495 H   0  0  0  0  0  0  0  0  0  0  0  0
   -0.7680    4.7936   -0.8815 H   0  0  0  0  0  0  0  0  0  0  0  0
    2.8962    4.1142    1.2374 H   0  0  0  0  0  0  0  0  0  0  0  0
  1  2  3  0
  2  3  1  0
  3  4  2  0
  4  5  1  0
  5  6  2  0
  6  7  1  0
  7  8  2  0
  8  9  1  0
  9 10  1  0
 10 11  1  0
 11 12  1  0
 12 13  1  0
 13 14  1  0
 14 15  1  0
 15 16  1  0
 16 17  1  0
 16 18  1  0
 11 19  2  0
 19 20  1  0
 20 21  1  0
 21 22  1  0
 22 23  1  0
 22 24  2  0
 24 25  1  0
 25 26  1  0
 26 27  2  0
  8  3  1  0
 26 10  1  0
 18 12  1  0
 25 20  2  0
  4 28  1  0
  5 29  1  0
  6 30  1  0
  7 31  1  0
  9 32  1  0
  9 33  1  0
 13 34  1  0
 13 35  1  0
 14 36  1  0
 14 37  1  0
 15 38  1  0
 15 39  1  0
 16 40  1  6
 17 41  1  0
 17 42  1  0
 18 43  1  0
 18 44  1  0
 21 45  1  0
 24 46  1  0
M  END
$$$$
