
     RDKit          3D

 31 31  0  0  0  0  0  0  0  0999 V2000
   -3.8543    1.2157    0.1989 C   0  0  0  0  0  0  0  0  0  0  0  0
   -2.5044    1.3627   -0.5053 C   0  0  0  0  0  0  0  0  0  0  0  0
   -1.5672    0.1512   -0.2765 C   0  0  0  0  0  0  0  0  0  0  0  0
   -1.0997    0.0666    1.1894 C   0  0  0  0  0  0  0  0  0  0  0  0
   -0.3903    0.1562   -1.3032 C   0  0  0  0  0  0  0  0  0  0  0  0
    0.3957    1.3969   -1.3009 N   0  0  0  0  0  0  0  0  0  0  0  0
    0.4769   -1.0895   -1.2001 C   0  0  0  0  0  0  0  0  0  0  0  0
   -0.0035   -2.1560   -1.6743 O   0  0  0  0  0  0  0  0  0  0  0  0
    1.7897   -1.1369   -0.5879 N   0  0  0  0  0  0  0  0  0  0  0  0
    2.4010   -0.0584    0.1807 C   0  0  0  0  0  0  0  0  0  0  0  0
    3.5854   -0.6328    0.9380 C   0  0  0  0  0  0  0  0  0  0  0  0
    4.2521   -2.0056   -0.0350 S   0  0  0  0  0  0  0  0  0  0  0  0
    2.6001   -2.3445   -0.7053 C   0  0  0  0  0  0  0  0  0  0  0  0
   -4.5224    2.0479   -0.1082 H   0  0  0  0  0  0  0  0  0  0  0  0
   -4.3379    0.2556   -0.0802 H   0  0  0  0  0  0  0  0  0  0  0  0
   -3.7325    1.2642    1.3005 H   0  0  0  0  0  0  0  0  0  0  0  0
   -2.7058    1.4710   -1.5936 H   0  0  0  0  0  0  0  0  0  0  0  0
   -2.0172    2.2999   -0.1590 H   0  0  0  0  0  0  0  0  0  0  0  0
   -2.1579   -0.7710   -0.4791 H   0  0  0  0  0  0  0  0  0  0  0  0
   -1.9636   -0.1276    1.8575 H   0  0  0  0  0  0  0  0  0  0  0  0
   -0.6141    1.0086    1.5171 H   0  0  0  0  0  0  0  0  0  0  0  0
   -0.3970   -0.7800    1.3312 H   0  0  0  0  0  0  0  0  0  0  0  0
   -0.8652    0.0813   -2.3100 H   0  0  0  0  0  0  0  0  0  0  0  0
   -0.0708    2.0942   -1.9259 H   0  0  0  0  0  0  0  0  0  0  0  0
    0.4117    1.8266   -0.3501 H   0  0  0  0  0  0  0  0  0  0  0  0
    2.7583    0.7337   -0.5114 H   0  0  0  0  0  0  0  0  0  0  0  0
    1.6860    0.3645    0.9130 H   0  0  0  0  0  0  0  0  0  0  0  0
    4.3657    0.1404    1.1006 H   0  0  0  0  0  0  0  0  0  0  0  0
    3.2505   -1.0275    1.9214 H   0  0  0  0  0  0  0  0  0  0  0  0
    2.7011   -2.6360   -1.7723 H   0  0  0  0  0  0  0  0  0  0  0  0
    2.1295   -3.1713   -0.1322 H   0  0  0  0  0  0  0  0  0  0  0  0
  1  2  1  0
  2  3  1  0
  3  4  1  0
  3  5  1  0
  5  6  1  0
  5  7  1  0
  7  8  2  0
  7  9  1  0
  9 10  1  0
 10 11  1  0
 11 12  1  0
 12 13  1  0
 13  9  1  0
  1 14  1  0
  1 15  1  0
  1 16  1  0
  2 17  1  0
  2 18  1  0
  3 19  1  0
  4 20  1  0
  4 21  1  0
  4 22  1  0
  5 23  1  0
  6 24  1  0
  6 25  1  0
 10 26  1  0
 10 27  1  0
 11 28  1  0
 11 29  1  0
 13 30  1  0
 13 31  1  0
M  END
$$$$
