
     RDKit          3D

 41 41  0  0  0  0  0  0  0  0999 V2000
    5.9168    0.3538    0.4348 N   0  0  0  0  0  0  0  0  0  0  0  0
    5.2336   -0.8843    0.0701 C   0  0  0  0  0  0  0  0  0  0  0  0
    3.8296   -0.5945   -0.4727 C   0  0  0  0  0  0  0  0  0  0  0  0
    2.9146    0.0127    0.6000 C   0  0  0  0  0  0  0  0  0  0  0  0
    1.5031    0.2539    0.0455 C   0  0  0  0  0  0  0  0  0  0  0  0
    0.5818    0.9461    1.0760 C   0  0  0  0  0  0  0  0  0  0  0  0
    0.3347    0.1178    2.2611 N   0  0  0  0  0  0  0  0  0  0  0  0
   -0.7277    1.3569    0.4435 C   0  0  0  0  0  0  0  0  0  0  0  0
   -1.0978    2.5580    0.5495 O   0  0  0  0  0  0  0  0  0  0  0  0
   -1.5400    0.4365   -0.3128 N   0  0  0  0  0  0  0  0  0  0  0  0
   -2.1267    0.9062   -1.5790 C   0  0  0  0  0  0  0  0  0  0  0  0
   -3.5917    1.3645   -1.4205 C   0  0  0  0  0  0  0  0  0  0  0  0
   -4.3130    0.8182   -0.1773 C   0  0  0  0  0  0  0  0  0  0  0  0
   -4.4577   -0.7132   -0.1552 C   0  0  0  0  0  0  0  0  0  0  0  0
   -3.1542   -1.5077   -0.3684 C   0  0  0  0  0  0  0  0  0  0  0  0
   -1.9111   -0.8659    0.2762 C   0  0  0  0  0  0  0  0  0  0  0  0
    6.8381    0.0961    0.8568 H   0  0  0  0  0  0  0  0  0  0  0  0
    6.1292    0.8812   -0.4433 H   0  0  0  0  0  0  0  0  0  0  0  0
    5.8221   -1.4212   -0.7072 H   0  0  0  0  0  0  0  0  0  0  0  0
    5.1602   -1.5458    0.9613 H   0  0  0  0  0  0  0  0  0  0  0  0
    3.9049    0.0959   -1.3414 H   0  0  0  0  0  0  0  0  0  0  0  0
    3.3880   -1.5499   -0.8316 H   0  0  0  0  0  0  0  0  0  0  0  0
    3.3421    0.9784    0.9478 H   0  0  0  0  0  0  0  0  0  0  0  0
    2.8601   -0.6831    1.4650 H   0  0  0  0  0  0  0  0  0  0  0  0
    1.5809    0.9046   -0.8540 H   0  0  0  0  0  0  0  0  0  0  0  0
    1.0658   -0.7145   -0.2771 H   0  0  0  0  0  0  0  0  0  0  0  0
    1.0933    1.8808    1.4045 H   0  0  0  0  0  0  0  0  0  0  0  0
    1.1358    0.2323    2.9237 H   0  0  0  0  0  0  0  0  0  0  0  0
    0.3040   -0.8937    1.9997 H   0  0  0  0  0  0  0  0  0  0  0  0
   -1.5263    1.7480   -1.9905 H   0  0  0  0  0  0  0  0  0  0  0  0
   -2.0536    0.1077   -2.3461 H   0  0  0  0  0  0  0  0  0  0  0  0
   -3.6065    2.4745   -1.3554 H   0  0  0  0  0  0  0  0  0  0  0  0
   -4.1643    1.0856   -2.3316 H   0  0  0  0  0  0  0  0  0  0  0  0
   -5.3325    1.2601   -0.1458 H   0  0  0  0  0  0  0  0  0  0  0  0
   -3.7977    1.1648    0.7447 H   0  0  0  0  0  0  0  0  0  0  0  0
   -4.8890   -0.9980    0.8293 H   0  0  0  0  0  0  0  0  0  0  0  0
   -5.1916   -1.0201   -0.9319 H   0  0  0  0  0  0  0  0  0  0  0  0
   -3.2916   -2.5174    0.0763 H   0  0  0  0  0  0  0  0  0  0  0  0
   -2.9861   -1.6839   -1.4507 H   0  0  0  0  0  0  0  0  0  0  0  0
   -1.0623   -1.5711    0.1652 H   0  0  0  0  0  0  0  0  0  0  0  0
   -2.1172   -0.7396    1.3616 H   0  0  0  0  0  0  0  0  0  0  0  0
  1  2  1  0
  2  3  1  0
  3  4  1  0
  4  5  1  0
  5  6  1  0
  6  7  1  0
  6  8  1  0
  8  9  2  0
  8 10  1  0
 10 11  1  0
 11 12  1  0
 12 13  1  0
 13 14  1  0
 14 15  1  0
 15 16  1  0
 16 10  1  0
  1 17  1  0
  1 18  1  0
  2 19  1  0
  2 20  1  0
  3 21  1  0
  3 22  1  0
  4 23  1  0
  4 24  1  0
  5 25  1  0
  5 26  1  0
  6 27  1  0
  7 28  1  0
  7 29  1  0
 11 30  1  0
 11 31  1  0
 12 32  1  0
 12 33  1  0
 13 34  1  0
 13 35  1  0
 14 36  1  0
 14 37  1  0
 15 38  1  0
 15 39  1  0
 16 40  1  0
 16 41  1  0
M  END
$$$$
