
     RDKit          3D

 67 72  0  0  0  0  0  0  0  0999 V2000
   -3.7496    4.1238    0.3352 C   0  0  0  0  0  0  0  0  0  0  0  0
   -3.0010    2.9113    0.6642 C   0  0  0  0  0  0  0  0  0  0  0  0
   -2.3849    1.9110    0.9325 C   0  0  0  0  0  0  0  0  0  0  0  0
   -1.6371    0.6917    1.2517 C   0  0  0  0  0  0  0  0  0  0  0  0
   -1.0134    0.1524    0.0407 N   0  0  0  0  0  0  0  0  0  0  0  0
   -1.4169   -0.9085   -0.7131 C   0  0  0  0  0  0  0  0  0  0  0  0
   -2.6306   -1.6434   -0.4904 N   0  0  0  0  0  0  0  0  0  0  0  0
   -2.5895   -3.1073   -0.4918 C   0  0  0  0  0  0  0  0  0  0  0  0
   -3.9850   -3.6839   -0.2432 C   0  0  0  0  0  0  0  0  0  0  0  0
   -4.9539   -3.1266   -1.2106 N   0  0  0  0  0  0  0  0  0  0  0  0
   -6.3276   -3.5400   -0.8855 C   0  0  0  0  0  0  0  0  0  0  0  0
   -7.0494   -2.3310   -0.3262 C   0  0  0  0  0  0  0  0  0  0  0  0
   -6.3777   -1.1577   -0.9962 C   0  0  0  0  0  0  0  0  0  0  0  0
   -4.9578   -1.6429   -1.2979 C   0  0  1  0  0  0  0  0  0  0  0  0
   -3.9204   -0.9566   -0.3805 C   0  0  0  0  0  0  0  0  0  0  0  0
   -0.5564   -1.2242   -1.7151 N   0  0  0  0  0  0  0  0  0  0  0  0
    0.4082   -0.2941   -1.5804 C   0  0  0  0  0  0  0  0  0  0  0  0
    0.1423    0.5318   -0.5404 C   0  0  0  0  0  0  0  0  0  0  0  0
    1.0244    1.5587   -0.2196 C   0  0  0  0  0  0  0  0  0  0  0  0
    0.7828    2.3350    0.7448 O   0  0  0  0  0  0  0  0  0  0  0  0
    2.1634    1.7040   -0.9801 N   0  0  0  0  0  0  0  0  0  0  0  0
    3.1422    2.7541   -0.6389 C   0  0  0  0  0  0  0  0  0  0  0  0
    4.1280    2.2296    0.3573 C   0  0  0  0  0  0  0  0  0  0  0  0
    3.8549    2.3045    1.6860 N   0  0  0  0  0  0  0  0  0  0  0  0
    4.7028    1.7990    2.6214 C   0  0  0  0  0  0  0  0  0  0  0  0
    4.3272    1.9265    4.0691 C   0  0  0  0  0  0  0  0  0  0  0  0
    5.8955    1.1694    2.2034 C   0  0  0  0  0  0  0  0  0  0  0  0
    6.8284    0.6171    3.1037 C   0  0  0  0  0  0  0  0  0  0  0  0
    7.9889    0.0022    2.6233 C   0  0  0  0  0  0  0  0  0  0  0  0
    8.2311   -0.0696    1.2493 C   0  0  0  0  0  0  0  0  0  0  0  0
    7.3145    0.4740    0.3461 C   0  0  0  0  0  0  0  0  0  0  0  0
    6.1503    1.0932    0.8149 C   0  0  0  0  0  0  0  0  0  0  0  0
    5.2629    1.6179   -0.0679 N   0  0  0  0  0  0  0  0  0  0  0  0
    2.4227    0.8270   -2.0213 C   0  0  0  0  0  0  0  0  0  0  0  0
    3.4965    0.9334   -2.6792 O   0  0  0  0  0  0  0  0  0  0  0  0
    1.5256   -0.1669   -2.3458 N   0  0  0  0  0  0  0  0  0  0  0  0
    1.8038   -1.1166   -3.4316 C   0  0  0  0  0  0  0  0  0  0  0  0
   -3.1006    4.8137   -0.2425 H   0  0  0  0  0  0  0  0  0  0  0  0
   -4.0781    4.6213    1.2708 H   0  0  0  0  0  0  0  0  0  0  0  0
   -4.6381    3.8558   -0.2729 H   0  0  0  0  0  0  0  0  0  0  0  0
   -2.3212   -0.0536    1.7048 H   0  0  0  0  0  0  0  0  0  0  0  0
   -0.8635    0.9186    2.0138 H   0  0  0  0  0  0  0  0  0  0  0  0
   -2.2147   -3.4679   -1.4745 H   0  0  0  0  0  0  0  0  0  0  0  0
   -1.9000   -3.4606    0.3050 H   0  0  0  0  0  0  0  0  0  0  0  0
   -3.9379   -4.7886   -0.3601 H   0  0  0  0  0  0  0  0  0  0  0  0
   -4.2957   -3.4591    0.8030 H   0  0  0  0  0  0  0  0  0  0  0  0
   -6.8282   -3.8615   -1.8247 H   0  0  0  0  0  0  0  0  0  0  0  0
   -6.3756   -4.3927   -0.1702 H   0  0  0  0  0  0  0  0  0  0  0  0
   -8.1385   -2.3635   -0.5463 H   0  0  0  0  0  0  0  0  0  0  0  0
   -6.8898   -2.2767    0.7734 H   0  0  0  0  0  0  0  0  0  0  0  0
   -6.9047   -0.9286   -1.9493 H   0  0  0  0  0  0  0  0  0  0  0  0
   -6.4087   -0.2535   -0.3488 H   0  0  0  0  0  0  0  0  0  0  0  0
   -4.7045   -1.3654   -2.3452 H   0  0  0  0  0  0  0  0  0  0  0  0
   -3.8250    0.1090   -0.6823 H   0  0  0  0  0  0  0  0  0  0  0  0
   -4.2625   -0.9931    0.6767 H   0  0  0  0  0  0  0  0  0  0  0  0
    3.6771    3.1105   -1.5463 H   0  0  0  0  0  0  0  0  0  0  0  0
    2.6337    3.6526   -0.2259 H   0  0  0  0  0  0  0  0  0  0  0  0
    3.3534    2.4504    4.1748 H   0  0  0  0  0  0  0  0  0  0  0  0
    4.2327    0.9188    4.5256 H   0  0  0  0  0  0  0  0  0  0  0  0
    5.0994    2.5126    4.6103 H   0  0  0  0  0  0  0  0  0  0  0  0
    6.6706    0.6546    4.1733 H   0  0  0  0  0  0  0  0  0  0  0  0
    8.7025   -0.4208    3.3187 H   0  0  0  0  0  0  0  0  0  0  0  0
    9.1308   -0.5475    0.8838 H   0  0  0  0  0  0  0  0  0  0  0  0
    7.5105    0.4132   -0.7173 H   0  0  0  0  0  0  0  0  0  0  0  0
    0.8681   -1.5729   -3.8195 H   0  0  0  0  0  0  0  0  0  0  0  0
    2.2918   -0.6021   -4.2870 H   0  0  0  0  0  0  0  0  0  0  0  0
    2.4717   -1.9216   -3.0593 H   0  0  0  0  0  0  0  0  0  0  0  0
  1  2  1  0
  2  3  3  0
  3  4  1  0
  4  5  1  0
  5  6  1  0
  6  7  1  0
  7  8  1  0
  8  9  1  0
  9 10  1  0
 10 11  1  0
 11 12  1  0
 12 13  1  0
 13 14  1  0
 14 15  1  0
  6 16  2  0
 16 17  1  0
 17 18  2  0
 18 19  1  0
 19 20  2  0
 19 21  1  0
 21 22  1  0
 22 23  1  0
 23 24  2  0
 24 25  1  0
 25 26  1  0
 25 27  2  0
 27 28  1  0
 28 29  2  0
 29 30  1  0
 30 31  2  0
 31 32  1  0
 32 33  2  0
 21 34  1  0
 34 35  2  0
 34 36  1  0
 36 37  1  0
 18  5  1  0
 33 23  1  0
 15  7  1  0
 36 17  1  0
 14 10  1  0
 32 27  1  0
  1 38  1  0
  1 39  1  0
  1 40  1  0
  4 41  1  0
  4 42  1  0
  8 43  1  0
  8 44  1  0
  9 45  1  0
  9 46  1  0
 11 47  1  0
 11 48  1  0
 12 49  1  0
 12 50  1  0
 13 51  1  0
 13 52  1  0
 14 53  1  6
 15 54  1  0
 15 55  1  0
 22 56  1  0
 22 57  1  0
 26 58  1  0
 26 59  1  0
 26 60  1  0
 28 61  1  0
 29 62  1  0
 30 63  1  0
 31 64  1  0
 37 65  1  0
 37 66  1  0
 37 67  1  0
M  END
$$$$
