
     RDKit          3D

 43 45  0  0  0  0  0  0  0  0999 V2000
    1.5232   -2.3592    2.9279 C   0  0  0  0  0  0  0  0  0  0  0  0
    1.1424   -1.6768    1.6456 C   0  0  0  0  0  0  0  0  0  0  0  0
    2.1065   -0.9797    0.9873 N   0  0  0  0  0  0  0  0  0  0  0  0
    1.8829   -0.3266   -0.1830 C   0  0  0  0  0  0  0  0  0  0  0  0
    2.9988    0.4135   -0.8260 C   0  0  0  0  0  0  0  0  0  0  0  0
    3.0606    0.5813   -2.2241 C   0  0  0  0  0  0  0  0  0  0  0  0
    4.1245    1.2757   -2.8083 C   0  0  0  0  0  0  0  0  0  0  0  0
    5.1405    1.8047   -2.0094 C   0  0  0  0  0  0  0  0  0  0  0  0
    6.1711    2.4768   -2.5789 F   0  0  0  0  0  0  0  0  0  0  0  0
    5.0974    1.6354   -0.6238 C   0  0  0  0  0  0  0  0  0  0  0  0
    4.0366    0.9412   -0.0343 C   0  0  0  0  0  0  0  0  0  0  0  0
    0.5971   -0.3494   -0.7376 C   0  0  0  0  0  0  0  0  0  0  0  0
   -0.4306   -1.0523   -0.0983 C   0  0  0  0  0  0  0  0  0  0  0  0
   -1.7732   -1.0333   -0.7123 C   0  0  0  0  0  0  0  0  0  0  0  0
   -2.2176   -2.0864   -1.2441 O   0  0  0  0  0  0  0  0  0  0  0  0
   -2.5700    0.1642   -0.7213 N   0  0  0  0  0  0  0  0  0  0  0  0
   -2.1661    1.4203   -0.1108 C   0  0  0  0  0  0  0  0  0  0  0  0
   -3.2956    2.4000   -0.3998 C   0  0  0  0  0  0  0  0  0  0  0  0
   -4.4900    1.5516   -0.8294 C   0  0  0  0  0  0  0  0  0  0  0  0
   -3.9175    0.2079   -1.2604 C   0  0  0  0  0  0  0  0  0  0  0  0
   -0.1649   -1.7544    1.1029 C   0  0  0  0  0  0  0  0  0  0  0  0
   -1.2744   -2.4986    1.8330 C   0  0  0  0  0  0  0  0  0  0  0  0
   -2.0471   -1.5975    2.6852 N   0  0  0  0  0  0  0  0  0  0  0  0
    2.5545   -2.0753    3.2279 H   0  0  0  0  0  0  0  0  0  0  0  0
    0.8353   -2.0600    3.7455 H   0  0  0  0  0  0  0  0  0  0  0  0
    1.4924   -3.4605    2.7926 H   0  0  0  0  0  0  0  0  0  0  0  0
    2.3043    0.1580   -2.8716 H   0  0  0  0  0  0  0  0  0  0  0  0
    4.1634    1.3973   -3.8832 H   0  0  0  0  0  0  0  0  0  0  0  0
    5.8861    2.0424   -0.0042 H   0  0  0  0  0  0  0  0  0  0  0  0
    4.0215    0.8281    1.0427 H   0  0  0  0  0  0  0  0  0  0  0  0
    0.3810    0.1924   -1.6499 H   0  0  0  0  0  0  0  0  0  0  0  0
   -2.0391    1.2830    0.9845 H   0  0  0  0  0  0  0  0  0  0  0  0
   -1.2181    1.7870   -0.5580 H   0  0  0  0  0  0  0  0  0  0  0  0
   -3.0013    3.0738   -1.2345 H   0  0  0  0  0  0  0  0  0  0  0  0
   -3.5374    3.0137    0.4951 H   0  0  0  0  0  0  0  0  0  0  0  0
   -5.1710    1.4058    0.0380 H   0  0  0  0  0  0  0  0  0  0  0  0
   -5.0528    2.0356   -1.6569 H   0  0  0  0  0  0  0  0  0  0  0  0
   -3.8771    0.1353   -2.3688 H   0  0  0  0  0  0  0  0  0  0  0  0
   -4.5292   -0.6242   -0.8483 H   0  0  0  0  0  0  0  0  0  0  0  0
   -0.8687   -3.3229    2.4539 H   0  0  0  0  0  0  0  0  0  0  0  0
   -1.9567   -2.9954    1.1135 H   0  0  0  0  0  0  0  0  0  0  0  0
   -1.3945   -1.0814    3.3188 H   0  0  0  0  0  0  0  0  0  0  0  0
   -2.5274   -0.8915    2.0826 H   0  0  0  0  0  0  0  0  0  0  0  0
  1  2  1  0
  2  3  2  0
  3  4  1  0
  4  5  1  0
  5  6  2  0
  6  7  1  0
  7  8  2  0
  8  9  1  0
  8 10  1  0
 10 11  2  0
  4 12  2  0
 12 13  1  0
 13 14  1  0
 14 15  2  0
 14 16  1  0
 16 17  1  0
 17 18  1  0
 18 19  1  0
 19 20  1  0
 13 21  2  0
 21 22  1  0
 22 23  1  0
 21  2  1  0
 11  5  1  0
 20 16  1  0
  1 24  1  0
  1 25  1  0
  1 26  1  0
  6 27  1  0
  7 28  1  0
 10 29  1  0
 11 30  1  0
 12 31  1  0
 17 32  1  0
 17 33  1  0
 18 34  1  0
 18 35  1  0
 19 36  1  0
 19 37  1  0
 20 38  1  0
 20 39  1  0
 22 40  1  0
 22 41  1  0
 23 42  1  0
 23 43  1  0
M  END
$$$$
