
     RDKit          3D

 56 59  0  0  0  0  0  0  0  0999 V2000
   -6.3435    2.1495   -1.5940 C   0  0  0  0  0  0  0  0  0  0  0  0
   -4.9824    1.5341   -1.2747 C   0  0  0  0  0  0  0  0  0  0  0  0
   -5.0806    0.0768   -0.9086 C   0  0  0  0  0  0  0  0  0  0  0  0
   -6.1690   -0.6793   -1.1681 N   0  0  0  0  0  0  0  0  0  0  0  0
   -5.9698   -1.8641   -0.6125 N   0  0  0  0  0  0  0  0  0  0  0  0
   -4.7616   -1.8136   -0.0256 C   0  0  0  0  0  0  0  0  0  0  0  0
   -4.1416   -0.6331   -0.2364 N   0  0  0  0  0  0  0  0  0  0  0  0
   -2.8974   -0.2088    0.4349 C   0  0  2  0  0  0  0  0  0  0  0  0
   -1.9312    0.5514   -0.4954 C   0  0  0  0  0  0  0  0  0  0  0  0
   -0.6691    0.9774    0.2731 C   0  0  0  0  0  0  0  0  0  0  0  0
   -0.0625   -0.1582    0.9900 N   0  0  0  0  0  0  0  0  0  0  0  0
    1.3574   -0.1853    1.2428 C   0  0  0  0  0  0  0  0  0  0  0  0
    1.7821   -0.5170    2.3835 O   0  0  0  0  0  0  0  0  0  0  0  0
    2.3622    0.1069    0.1592 C   0  0  0  0  0  0  0  0  0  0  0  0
    3.2154    1.3502    0.4881 C   0  0  2  0  0  0  0  0  0  0  0  0
    2.3515    2.5223    0.6559 N   0  0  0  0  0  0  0  0  0  0  0  0
    4.2773    1.6182   -0.6041 C   0  0  0  0  0  0  0  0  0  0  0  0
    5.3338    0.5407   -0.6498 C   0  0  0  0  0  0  0  0  0  0  0  0
    5.2721   -0.4670   -1.6280 C   0  0  0  0  0  0  0  0  0  0  0  0
    6.2352   -1.4802   -1.6607 C   0  0  0  0  0  0  0  0  0  0  0  0
    6.1657   -2.4480   -2.6080 F   0  0  0  0  0  0  0  0  0  0  0  0
    7.2661   -1.4969   -0.7165 C   0  0  0  0  0  0  0  0  0  0  0  0
    8.2003   -2.4793   -0.7467 F   0  0  0  0  0  0  0  0  0  0  0  0
    7.3334   -0.5012    0.2619 C   0  0  0  0  0  0  0  0  0  0  0  0
    6.3723    0.5143    0.2999 C   0  0  0  0  0  0  0  0  0  0  0  0
    6.4546    1.4699    1.2602 F   0  0  0  0  0  0  0  0  0  0  0  0
   -0.9398   -1.0098    1.8075 C   0  0  0  0  0  0  0  0  0  0  0  0
   -2.1459   -1.4517    0.9731 C   0  0  1  0  0  0  0  0  0  0  0  0
   -3.1033   -2.3660    1.7552 C   0  0  0  0  0  0  0  0  0  0  0  0
   -4.1874   -2.9157    0.8150 C   0  0  0  0  0  0  0  0  0  0  0  0
   -7.0267    2.0478   -0.7237 H   0  0  0  0  0  0  0  0  0  0  0  0
   -6.7953    1.6533   -2.4794 H   0  0  0  0  0  0  0  0  0  0  0  0
   -6.2181    3.2290   -1.8219 H   0  0  0  0  0  0  0  0  0  0  0  0
   -4.3267    1.6409   -2.1644 H   0  0  0  0  0  0  0  0  0  0  0  0
   -4.5458    2.0967   -0.4224 H   0  0  0  0  0  0  0  0  0  0  0  0
   -3.1762    0.4521    1.2868 H   0  0  0  0  0  0  0  0  0  0  0  0
   -2.3923    1.4708   -0.8964 H   0  0  0  0  0  0  0  0  0  0  0  0
   -1.6465   -0.0914   -1.3572 H   0  0  0  0  0  0  0  0  0  0  0  0
   -0.9343    1.7670    1.0096 H   0  0  0  0  0  0  0  0  0  0  0  0
    0.0359    1.4251   -0.4533 H   0  0  0  0  0  0  0  0  0  0  0  0
    1.8666    0.2227   -0.8270 H   0  0  0  0  0  0  0  0  0  0  0  0
    3.0228   -0.7820    0.0768 H   0  0  0  0  0  0  0  0  0  0  0  0
    3.7407    1.1670    1.4529 H   0  0  0  0  0  0  0  0  0  0  0  0
    2.9248    3.3081    1.0408 H   0  0  0  0  0  0  0  0  0  0  0  0
    1.9950    2.8285   -0.2789 H   0  0  0  0  0  0  0  0  0  0  0  0
    4.7740    2.5928   -0.4044 H   0  0  0  0  0  0  0  0  0  0  0  0
    3.7815    1.7164   -1.5952 H   0  0  0  0  0  0  0  0  0  0  0  0
    4.4745   -0.4707   -2.3608 H   0  0  0  0  0  0  0  0  0  0  0  0
    8.1312   -0.5169    0.9934 H   0  0  0  0  0  0  0  0  0  0  0  0
   -1.2734   -0.4453    2.7059 H   0  0  0  0  0  0  0  0  0  0  0  0
   -0.3905   -1.9165    2.1457 H   0  0  0  0  0  0  0  0  0  0  0  0
   -1.7539   -2.0417    0.1114 H   0  0  0  0  0  0  0  0  0  0  0  0
   -2.5432   -3.2191    2.1962 H   0  0  0  0  0  0  0  0  0  0  0  0
   -3.5785   -1.7968    2.5848 H   0  0  0  0  0  0  0  0  0  0  0  0
   -4.9928   -3.3902    1.4152 H   0  0  0  0  0  0  0  0  0  0  0  0
   -3.7473   -3.6842    0.1440 H   0  0  0  0  0  0  0  0  0  0  0  0
  1  2  1  0
  2  3  1  0
  3  4  2  0
  4  5  1  0
  5  6  2  0
  6  7  1  0
  7  8  1  0
  8  9  1  0
  9 10  1  0
 10 11  1  0
 11 12  1  0
 12 13  2  0
 12 14  1  0
 14 15  1  0
 15 16  1  0
 15 17  1  0
 17 18  1  0
 18 19  2  0
 19 20  1  0
 20 21  1  0
 20 22  2  0
 22 23  1  0
 22 24  1  0
 24 25  2  0
 25 26  1  0
 11 27  1  0
 27 28  1  0
 28 29  1  0
 29 30  1  0
  7  3  1  0
 28  8  1  0
 30  6  1  0
 25 18  1  0
  1 31  1  0
  1 32  1  0
  1 33  1  0
  2 34  1  0
  2 35  1  0
  8 36  1  1
  9 37  1  0
  9 38  1  0
 10 39  1  0
 10 40  1  0
 14 41  1  0
 14 42  1  0
 15 43  1  1
 16 44  1  0
 16 45  1  0
 17 46  1  0
 17 47  1  0
 19 48  1  0
 24 49  1  0
 27 50  1  0
 27 51  1  0
 28 52  1  6
 29 53  1  0
 29 54  1  0
 30 55  1  0
 30 56  1  0
M  END
$$$$
