
     RDKit          3D

 56 58  0  0  0  0  0  0  0  0999 V2000
   -4.6851    3.3916    1.3795 C   0  0  0  0  0  0  0  0  0  0  0  0
   -3.6517    2.3679    1.5299 C   0  0  0  0  0  0  0  0  0  0  0  0
   -2.8017    1.5218    1.6480 C   0  0  0  0  0  0  0  0  0  0  0  0
   -1.7709    0.4876    1.7818 C   0  0  0  0  0  0  0  0  0  0  0  0
   -0.7748    0.6190    0.7001 N   0  0  0  0  0  0  0  0  0  0  0  0
   -0.9879    0.0126   -0.5119 C   0  0  0  0  0  0  0  0  0  0  0  0
   -2.1716   -0.7617   -0.7577 N   0  0  0  0  0  0  0  0  0  0  0  0
   -2.1526   -2.2046   -0.4956 C   0  0  0  0  0  0  0  0  0  0  0  0
   -3.4965   -2.6860    0.0829 C   0  0  0  0  0  0  0  0  0  0  0  0
   -4.7064   -1.8427   -0.3675 C   0  0  0  0  0  0  0  0  0  0  0  0
   -4.4459   -1.1251   -1.7010 C   0  0  1  0  0  0  0  0  0  0  0  0
   -5.6397   -0.3899   -2.1197 N   0  0  0  0  0  0  0  0  0  0  0  0
   -3.2613   -0.1557   -1.5344 C   0  0  0  0  0  0  0  0  0  0  0  0
   -0.0539    0.1481   -1.5334 C   0  0  0  0  0  0  0  0  0  0  0  0
    1.0828    0.9146   -1.3175 C   0  0  0  0  0  0  0  0  0  0  0  0
    1.9253    1.0254   -2.2500 O   0  0  0  0  0  0  0  0  0  0  0  0
    1.2754    1.5416   -0.1143 N   0  0  0  0  0  0  0  0  0  0  0  0
    2.4970    2.3390    0.1243 C   0  0  0  0  0  0  0  0  0  0  0  0
    3.5307    1.5143    0.8485 C   0  0  0  0  0  0  0  0  0  0  0  0
    3.7089    1.6548    2.2301 C   0  0  0  0  0  0  0  0  0  0  0  0
    4.6408    0.8658    2.9028 C   0  0  0  0  0  0  0  0  0  0  0  0
    5.4104   -0.0767    2.2114 C   0  0  0  0  0  0  0  0  0  0  0  0
    6.5185   -1.0609    3.1646 Cl  0  0  0  0  0  0  0  0  0  0  0  0
    5.2476   -0.2307    0.8111 C   0  0  0  0  0  0  0  0  0  0  0  0
    6.0332   -1.2045    0.0096 C   0  0  0  0  0  0  0  0  0  0  0  0
    7.1057   -1.6941    0.4569 O   0  0  0  0  0  0  0  0  0  0  0  0
    5.5884   -1.5630   -1.2683 O   0  0  0  0  0  0  0  0  0  0  0  0
    6.2911   -2.4800   -2.0983 C   0  0  0  0  0  0  0  0  0  0  0  0
    4.2973    0.5704    0.1491 C   0  0  0  0  0  0  0  0  0  0  0  0
    0.3441    1.3968    0.8870 C   0  0  0  0  0  0  0  0  0  0  0  0
    0.5164    1.9891    1.9902 O   0  0  0  0  0  0  0  0  0  0  0  0
   -5.3167    3.4166    2.2913 H   0  0  0  0  0  0  0  0  0  0  0  0
   -5.3160    3.1521    0.4988 H   0  0  0  0  0  0  0  0  0  0  0  0
   -4.2064    4.3817    1.2333 H   0  0  0  0  0  0  0  0  0  0  0  0
   -1.2962    0.5753    2.7822 H   0  0  0  0  0  0  0  0  0  0  0  0
   -2.2534   -0.5100    1.7660 H   0  0  0  0  0  0  0  0  0  0  0  0
   -1.3351   -2.4638    0.2132 H   0  0  0  0  0  0  0  0  0  0  0  0
   -1.9490   -2.7357   -1.4508 H   0  0  0  0  0  0  0  0  0  0  0  0
   -3.6517   -3.7441   -0.2215 H   0  0  0  0  0  0  0  0  0  0  0  0
   -3.4462   -2.6716    1.1934 H   0  0  0  0  0  0  0  0  0  0  0  0
   -5.5956   -2.5038   -0.4599 H   0  0  0  0  0  0  0  0  0  0  0  0
   -4.9346   -1.0835    0.4140 H   0  0  0  0  0  0  0  0  0  0  0  0
   -4.1922   -1.8837   -2.4774 H   0  0  0  0  0  0  0  0  0  0  0  0
   -5.4395    0.0607   -3.0425 H   0  0  0  0  0  0  0  0  0  0  0  0
   -6.4054   -1.0802   -2.2972 H   0  0  0  0  0  0  0  0  0  0  0  0
   -3.6093    0.7600   -1.0096 H   0  0  0  0  0  0  0  0  0  0  0  0
   -2.8851    0.1441   -2.5365 H   0  0  0  0  0  0  0  0  0  0  0  0
   -0.2142   -0.3390   -2.4883 H   0  0  0  0  0  0  0  0  0  0  0  0
    2.9267    2.7182   -0.8285 H   0  0  0  0  0  0  0  0  0  0  0  0
    2.2511    3.2559    0.7047 H   0  0  0  0  0  0  0  0  0  0  0  0
    3.1242    2.3736    2.7903 H   0  0  0  0  0  0  0  0  0  0  0  0
    4.7586    0.9828    3.9728 H   0  0  0  0  0  0  0  0  0  0  0  0
    6.3629   -3.4684   -1.5970 H   0  0  0  0  0  0  0  0  0  0  0  0
    5.7417   -2.6008   -3.0543 H   0  0  0  0  0  0  0  0  0  0  0  0
    7.3095   -2.0934   -2.3147 H   0  0  0  0  0  0  0  0  0  0  0  0
    4.1584    0.4720   -0.9199 H   0  0  0  0  0  0  0  0  0  0  0  0
  1  2  1  0
  2  3  3  0
  3  4  1  0
  4  5  1  0
  5  6  1  0
  6  7  1  0
  7  8  1  0
  8  9  1  0
  9 10  1  0
 10 11  1  0
 11 12  1  0
 11 13  1  0
  6 14  2  0
 14 15  1  0
 15 16  2  0
 15 17  1  0
 17 18  1  0
 18 19  1  0
 19 20  2  0
 20 21  1  0
 21 22  2  0
 22 23  1  0
 22 24  1  0
 24 25  1  0
 25 26  2  0
 25 27  1  0
 27 28  1  0
 24 29  2  0
 17 30  1  0
 30 31  2  0
 30  5  1  0
 13  7  1  0
 29 19  1  0
  1 32  1  0
  1 33  1  0
  1 34  1  0
  4 35  1  0
  4 36  1  0
  8 37  1  0
  8 38  1  0
  9 39  1  0
  9 40  1  0
 10 41  1  0
 10 42  1  0
 11 43  1  6
 12 44  1  0
 12 45  1  0
 13 46  1  0
 13 47  1  0
 14 48  1  0
 18 49  1  0
 18 50  1  0
 20 51  1  0
 21 52  1  0
 28 53  1  0
 28 54  1  0
 28 55  1  0
 29 56  1  0
M  END
$$$$
