
     RDKit          3D

 48 51  0  0  0  0  0  0  0  0999 V2000
    1.8555    1.2861   -0.1937 N   0  0  0  0  0  0  0  0  0  0  0  0
    2.3489    0.9039    1.1328 C   0  0  1  0  0  0  0  0  0  0  0  0
    1.1953    0.7489    2.1535 C   0  0  0  0  0  0  0  0  0  0  0  0
    0.2919   -0.4291    1.8679 C   0  0  0  0  0  0  0  0  0  0  0  0
    0.5802   -1.5433    2.3839 O   0  0  0  0  0  0  0  0  0  0  0  0
   -0.8331   -0.3377    0.9700 N   0  0  0  0  0  0  0  0  0  0  0  0
   -1.5967    0.9280    0.8580 C   0  0  0  0  0  0  0  0  0  0  0  0
   -3.0793    0.6934    0.5221 C   0  0  0  0  0  0  0  0  0  0  0  0
   -3.1829   -0.2986   -0.5808 C   0  0  0  0  0  0  0  0  0  0  0  0
   -4.1936   -0.5498   -1.4876 C   0  0  0  0  0  0  0  0  0  0  0  0
   -5.4404    0.2584   -1.6804 C   0  0  0  0  0  0  0  0  0  0  0  0
   -6.3924    0.2430   -0.4940 C   0  0  0  0  0  0  0  0  0  0  0  0
   -6.7246   -0.5546   -1.7430 C   0  0  0  0  0  0  0  0  0  0  0  0
   -3.8592   -1.6259   -2.2343 N   0  0  0  0  0  0  0  0  0  0  0  0
   -2.6878   -2.0704   -1.7985 N   0  0  0  0  0  0  0  0  0  0  0  0
   -2.2666   -1.2818   -0.7947 C   0  0  0  0  0  0  0  0  0  0  0  0
   -1.0350   -1.4637    0.0303 C   0  0  0  0  0  0  0  0  0  0  0  0
    3.2257   -0.3621    1.0417 C   0  0  0  0  0  0  0  0  0  0  0  0
    4.4664   -0.1132    0.2197 C   0  0  0  0  0  0  0  0  0  0  0  0
    5.5936    0.4761    0.8178 C   0  0  0  0  0  0  0  0  0  0  0  0
    6.7396    0.7380    0.0607 C   0  0  0  0  0  0  0  0  0  0  0  0
    7.8239    1.3034    0.6463 F   0  0  0  0  0  0  0  0  0  0  0  0
    6.7670    0.4208   -1.2998 C   0  0  0  0  0  0  0  0  0  0  0  0
    5.6480   -0.1557   -1.9061 C   0  0  0  0  0  0  0  0  0  0  0  0
    4.4983   -0.4202   -1.1544 C   0  0  0  0  0  0  0  0  0  0  0  0
    3.4201   -0.9722   -1.7668 F   0  0  0  0  0  0  0  0  0  0  0  0
    1.2998    2.1680   -0.1095 H   0  0  0  0  0  0  0  0  0  0  0  0
    1.2238    0.5421   -0.5658 H   0  0  0  0  0  0  0  0  0  0  0  0
    2.9923    1.7325    1.5060 H   0  0  0  0  0  0  0  0  0  0  0  0
    0.6210    1.6952    2.1980 H   0  0  0  0  0  0  0  0  0  0  0  0
    1.6352    0.6175    3.1664 H   0  0  0  0  0  0  0  0  0  0  0  0
   -1.5662    1.4858    1.8178 H   0  0  0  0  0  0  0  0  0  0  0  0
   -1.1373    1.5606    0.0687 H   0  0  0  0  0  0  0  0  0  0  0  0
   -3.5544    1.6515    0.2213 H   0  0  0  0  0  0  0  0  0  0  0  0
   -3.6061    0.2934    1.4148 H   0  0  0  0  0  0  0  0  0  0  0  0
   -5.4202    1.1937   -2.2784 H   0  0  0  0  0  0  0  0  0  0  0  0
   -6.9955    1.1678   -0.3763 H   0  0  0  0  0  0  0  0  0  0  0  0
   -6.0893   -0.3854    0.3714 H   0  0  0  0  0  0  0  0  0  0  0  0
   -6.6211   -1.6534   -1.6112 H   0  0  0  0  0  0  0  0  0  0  0  0
   -7.5270   -0.1024   -2.3634 H   0  0  0  0  0  0  0  0  0  0  0  0
   -2.1951   -2.9081   -2.1797 H   0  0  0  0  0  0  0  0  0  0  0  0
   -0.1548   -1.5528   -0.6413 H   0  0  0  0  0  0  0  0  0  0  0  0
   -1.1450   -2.4100    0.6016 H   0  0  0  0  0  0  0  0  0  0  0  0
    2.6435   -1.2030    0.6065 H   0  0  0  0  0  0  0  0  0  0  0  0
    3.5266   -0.6780    2.0650 H   0  0  0  0  0  0  0  0  0  0  0  0
    5.5819    0.7336    1.8698 H   0  0  0  0  0  0  0  0  0  0  0  0
    7.6537    0.6245   -1.8862 H   0  0  0  0  0  0  0  0  0  0  0  0
    5.6713   -0.3952   -2.9614 H   0  0  0  0  0  0  0  0  0  0  0  0
  1  2  1  0
  2  3  1  0
  3  4  1  0
  4  5  2  0
  4  6  1  0
  6  7  1  0
  7  8  1  0
  8  9  1  0
  9 10  1  0
 10 11  1  0
 11 12  1  0
 12 13  1  0
 10 14  2  0
 14 15  1  0
 15 16  1  0
 16 17  1  0
  2 18  1  0
 18 19  1  0
 19 20  2  0
 20 21  1  0
 21 22  1  0
 21 23  2  0
 23 24  1  0
 24 25  2  0
 25 26  1  0
 17  6  1  0
 25 19  1  0
 16  9  2  0
 13 11  1  0
  1 27  1  0
  1 28  1  0
  2 29  1  1
  3 30  1  0
  3 31  1  0
  7 32  1  0
  7 33  1  0
  8 34  1  0
  8 35  1  0
 11 36  1  0
 12 37  1  0
 12 38  1  0
 13 39  1  0
 13 40  1  0
 15 41  1  0
 17 42  1  0
 17 43  1  0
 18 44  1  0
 18 45  1  0
 20 46  1  0
 23 47  1  0
 24 48  1  0
M  END
$$$$
