
     RDKit          3D

 54 56  0  0  0  0  0  0  0  0999 V2000
   -2.9895   -0.3605   -2.3082 N   0  0  0  0  0  0  0  0  0  0  0  0
   -2.5757   -1.4356   -1.4046 C   0  0  2  0  0  0  0  0  0  0  0  0
   -3.6517   -1.7738   -0.3862 C   0  0  0  0  0  0  0  0  0  0  0  0
   -3.7864   -2.9861   -0.0644 O   0  0  0  0  0  0  0  0  0  0  0  0
   -4.4407   -0.7805    0.3050 N   0  0  0  0  0  0  0  0  0  0  0  0
   -5.0688   -1.0623    1.5874 C   0  0  0  0  0  0  0  0  0  0  0  0
   -6.0761    0.0558    1.8176 C   0  0  0  0  0  0  0  0  0  0  0  0
   -5.6815    1.1700    0.8535 C   0  0  0  0  0  0  0  0  0  0  0  0
   -4.8948    2.1014    1.5124 F   0  0  0  0  0  0  0  0  0  0  0  0
   -6.8016    1.7985    0.3355 F   0  0  0  0  0  0  0  0  0  0  0  0
   -4.8742    0.4942   -0.2489 C   0  0  0  0  0  0  0  0  0  0  0  0
   -1.2211   -1.1268   -0.7009 C   0  0  1  0  0  0  0  0  0  0  0  0
   -0.0102   -1.1811   -1.6824 C   0  0  0  0  0  0  0  0  0  0  0  0
    0.5890    0.1950   -2.0303 C   0  0  0  0  0  0  0  0  0  0  0  0
    0.8792    1.0928   -0.7965 C   0  0  2  0  0  0  0  0  0  0  0  0
    2.3195    1.2702   -0.5669 N   0  0  0  0  0  0  0  0  0  0  0  0
    3.2425    0.2124   -0.2530 C   0  0  0  0  0  0  0  0  0  0  0  0
    2.8321   -0.9690   -0.1095 O   0  0  0  0  0  0  0  0  0  0  0  0
    4.6886    0.5035   -0.1202 C   0  0  0  0  0  0  0  0  0  0  0  0
    5.2937    1.3107   -1.1002 C   0  0  0  0  0  0  0  0  0  0  0  0
    6.6610    1.5804   -1.0575 C   0  0  0  0  0  0  0  0  0  0  0  0
    7.4464    1.0440   -0.0408 C   0  0  0  0  0  0  0  0  0  0  0  0
    6.8662    0.2476    0.9472 C   0  0  0  0  0  0  0  0  0  0  0  0
    5.4812   -0.0177    0.9420 C   0  0  0  0  0  0  0  0  0  0  0  0
    4.8853   -0.8643    2.0517 C   0  0  0  0  0  0  0  0  0  0  0  0
    5.7391   -0.9475    3.1387 F   0  0  0  0  0  0  0  0  0  0  0  0
    3.6964   -0.3125    2.4957 F   0  0  0  0  0  0  0  0  0  0  0  0
    4.6516   -2.1434    1.5817 F   0  0  0  0  0  0  0  0  0  0  0  0
    0.1557    0.6378    0.4858 C   0  0  0  0  0  0  0  0  0  0  0  0
   -1.2586    0.1714    0.1415 C   0  0  0  0  0  0  0  0  0  0  0  0
   -2.2791   -0.2705   -3.0689 H   0  0  0  0  0  0  0  0  0  0  0  0
   -3.8709   -0.6592   -2.7863 H   0  0  0  0  0  0  0  0  0  0  0  0
   -2.4294   -2.3546   -2.0194 H   0  0  0  0  0  0  0  0  0  0  0  0
   -4.2949   -1.0631    2.3852 H   0  0  0  0  0  0  0  0  0  0  0  0
   -5.5884   -2.0451    1.5665 H   0  0  0  0  0  0  0  0  0  0  0  0
   -7.0971   -0.3105    1.5700 H   0  0  0  0  0  0  0  0  0  0  0  0
   -6.0631    0.4020    2.8740 H   0  0  0  0  0  0  0  0  0  0  0  0
   -4.0124    1.1314   -0.5244 H   0  0  0  0  0  0  0  0  0  0  0  0
   -5.5107    0.3114   -1.1417 H   0  0  0  0  0  0  0  0  0  0  0  0
   -1.0527   -1.9590    0.0217 H   0  0  0  0  0  0  0  0  0  0  0  0
   -0.2824   -1.6983   -2.6276 H   0  0  0  0  0  0  0  0  0  0  0  0
    0.7867   -1.8048   -1.2280 H   0  0  0  0  0  0  0  0  0  0  0  0
    1.5144    0.0475   -2.6287 H   0  0  0  0  0  0  0  0  0  0  0  0
   -0.1291    0.7231   -2.6945 H   0  0  0  0  0  0  0  0  0  0  0  0
    0.4650    2.0982   -1.0415 H   0  0  0  0  0  0  0  0  0  0  0  0
    2.6922    2.2452   -0.6233 H   0  0  0  0  0  0  0  0  0  0  0  0
    4.7098    1.7136   -1.9189 H   0  0  0  0  0  0  0  0  0  0  0  0
    7.1150    2.1962   -1.8232 H   0  0  0  0  0  0  0  0  0  0  0  0
    8.5098    1.2450   -0.0175 H   0  0  0  0  0  0  0  0  0  0  0  0
    7.5078   -0.1558    1.7200 H   0  0  0  0  0  0  0  0  0  0  0  0
    0.7002   -0.1875    0.9911 H   0  0  0  0  0  0  0  0  0  0  0  0
    0.1014    1.4891    1.1988 H   0  0  0  0  0  0  0  0  0  0  0  0
   -1.7634    0.9869   -0.4163 H   0  0  0  0  0  0  0  0  0  0  0  0
   -1.8254   -0.0058    1.0812 H   0  0  0  0  0  0  0  0  0  0  0  0
  1  2  1  0
  2  3  1  0
  3  4  2  0
  3  5  1  0
  5  6  1  0
  6  7  1  0
  7  8  1  0
  8  9  1  0
  8 10  1  0
  8 11  1  0
  2 12  1  0
 12 13  1  0
 13 14  1  0
 14 15  1  0
 15 16  1  0
 16 17  1  0
 17 18  2  0
 17 19  1  0
 19 20  2  0
 20 21  1  0
 21 22  2  0
 22 23  1  0
 23 24  2  0
 24 25  1  0
 25 26  1  0
 25 27  1  0
 25 28  1  0
 15 29  1  0
 29 30  1  0
 11  5  1  0
 30 12  1  0
 24 19  1  0
  1 31  1  0
  1 32  1  0
  2 33  1  6
  6 34  1  0
  6 35  1  0
  7 36  1  0
  7 37  1  0
 11 38  1  0
 11 39  1  0
 12 40  1  1
 13 41  1  0
 13 42  1  0
 14 43  1  0
 14 44  1  0
 15 45  1  6
 16 46  1  0
 20 47  1  0
 21 48  1  0
 22 49  1  0
 23 50  1  0
 29 51  1  0
 29 52  1  0
 30 53  1  0
 30 54  1  0
M  END
$$$$
