
     RDKit          3D

 50 53  0  0  0  0  0  0  0  0999 V2000
    8.1206    0.4015   -1.2196 C   0  0  0  0  0  0  0  0  0  0  0  0
    6.6488    0.2013   -0.8818 C   0  0  0  0  0  0  0  0  0  0  0  0
    6.4560   -0.4971    0.7492 S   0  0  0  0  0  0  0  0  0  0  0  0
    7.1458   -1.8303    0.8267 O   0  0  0  0  0  0  0  0  0  0  0  0
    7.0573    0.4255    1.7723 O   0  0  0  0  0  0  0  0  0  0  0  0
    4.7728   -0.7027    1.0847 N   0  0  0  0  0  0  0  0  0  0  0  0
    3.9769   -1.6382    0.5272 C   0  0  0  0  0  0  0  0  0  0  0  0
    2.6931   -1.3742    0.9490 C   0  0  0  0  0  0  0  0  0  0  0  0
    2.7753   -0.2664    1.6997 C   0  0  0  0  0  0  0  0  0  0  0  0
    4.0426    0.1849    1.7461 N   0  0  0  0  0  0  0  0  0  0  0  0
    1.5422    0.5333    1.5838 C   0  0  0  0  0  0  0  0  0  0  0  0
    0.7882   -0.0901    0.4619 N   0  0  0  0  0  0  0  0  0  0  0  0
   -0.6768   -0.1555    0.7003 C   0  0  1  0  0  0  0  0  0  0  0  0
   -1.2642    1.2635    0.8977 C   0  0  0  0  0  0  0  0  0  0  0  0
   -2.6615    1.2128    1.1159 O   0  0  0  0  0  0  0  0  0  0  0  0
   -3.3314    0.7505   -0.0445 C   0  0  2  0  0  0  0  0  0  0  0  0
   -4.8269    0.8416    0.1845 C   0  0  0  0  0  0  0  0  0  0  0  0
   -5.3845    0.3895    1.3960 C   0  0  0  0  0  0  0  0  0  0  0  0
   -6.7657    0.4436    1.6051 C   0  0  0  0  0  0  0  0  0  0  0  0
   -7.2908    0.0100    2.7775 F   0  0  0  0  0  0  0  0  0  0  0  0
   -7.6057    0.9396    0.6058 C   0  0  0  0  0  0  0  0  0  0  0  0
   -7.0671    1.3779   -0.6058 C   0  0  0  0  0  0  0  0  0  0  0  0
   -5.6861    1.3271   -0.8228 C   0  0  0  0  0  0  0  0  0  0  0  0
   -5.1933    1.7453   -2.0164 F   0  0  0  0  0  0  0  0  0  0  0  0
   -2.9238   -0.7081   -0.3514 C   0  0  1  0  0  0  0  0  0  0  0  0
   -3.6007   -1.1896   -1.5592 N   0  0  0  0  0  0  0  0  0  0  0  0
   -1.3956   -0.7995   -0.5065 C   0  0  0  0  0  0  0  0  0  0  0  0
    1.4076   -1.4236    0.2285 C   0  0  0  0  0  0  0  0  0  0  0  0
    8.5915    1.0972   -0.4932 H   0  0  0  0  0  0  0  0  0  0  0  0
    8.6564   -0.5710   -1.1986 H   0  0  0  0  0  0  0  0  0  0  0  0
    8.2118    0.8355   -2.2375 H   0  0  0  0  0  0  0  0  0  0  0  0
    6.1219    1.1780   -0.9217 H   0  0  0  0  0  0  0  0  0  0  0  0
    6.1869   -0.4824   -1.6251 H   0  0  0  0  0  0  0  0  0  0  0  0
    4.2814   -2.3302   -0.2473 H   0  0  0  0  0  0  0  0  0  0  0  0
    0.9949    0.4683    2.5503 H   0  0  0  0  0  0  0  0  0  0  0  0
    1.7796    1.5907    1.3401 H   0  0  0  0  0  0  0  0  0  0  0  0
   -0.8883   -0.7607    1.6122 H   0  0  0  0  0  0  0  0  0  0  0  0
   -1.0147    1.9187    0.0315 H   0  0  0  0  0  0  0  0  0  0  0  0
   -0.8135    1.7393    1.7918 H   0  0  0  0  0  0  0  0  0  0  0  0
   -3.0609    1.3985   -0.9112 H   0  0  0  0  0  0  0  0  0  0  0  0
   -4.7484   -0.0073    2.1775 H   0  0  0  0  0  0  0  0  0  0  0  0
   -8.6752    0.9801    0.7672 H   0  0  0  0  0  0  0  0  0  0  0  0
   -7.7226    1.7544   -1.3806 H   0  0  0  0  0  0  0  0  0  0  0  0
   -3.2255   -1.3534    0.5049 H   0  0  0  0  0  0  0  0  0  0  0  0
   -3.3429   -2.1919   -1.7110 H   0  0  0  0  0  0  0  0  0  0  0  0
   -3.2611   -0.6493   -2.3884 H   0  0  0  0  0  0  0  0  0  0  0  0
   -1.1176   -1.8705   -0.6000 H   0  0  0  0  0  0  0  0  0  0  0  0
   -1.0791   -0.2811   -1.4392 H   0  0  0  0  0  0  0  0  0  0  0  0
    0.8037   -2.2530    0.6585 H   0  0  0  0  0  0  0  0  0  0  0  0
    1.5684   -1.5823   -0.8591 H   0  0  0  0  0  0  0  0  0  0  0  0
  1  2  1  0
  2  3  1  0
  3  4  2  0
  3  5  2  0
  3  6  1  0
  6  7  1  0
  7  8  2  0
  8  9  1  0
  9 10  2  0
  9 11  1  0
 11 12  1  0
 12 13  1  0
 13 14  1  0
 14 15  1  0
 15 16  1  0
 16 17  1  0
 17 18  2  0
 18 19  1  0
 19 20  1  0
 19 21  2  0
 21 22  1  0
 22 23  2  0
 23 24  1  0
 16 25  1  0
 25 26  1  0
 25 27  1  0
 12 28  1  0
 10  6  1  0
 27 13  1  0
 28  8  1  0
 23 17  1  0
  1 29  1  0
  1 30  1  0
  1 31  1  0
  2 32  1  0
  2 33  1  0
  7 34  1  0
 11 35  1  0
 11 36  1  0
 13 37  1  1
 14 38  1  0
 14 39  1  0
 16 40  1  6
 18 41  1  0
 21 42  1  0
 22 43  1  0
 25 44  1  1
 26 45  1  0
 26 46  1  0
 27 47  1  0
 27 48  1  0
 28 49  1  0
 28 50  1  0
M  END
$$$$
