
     RDKit          3D

 37 39  0  0  0  0  0  0  0  0999 V2000
   -3.0675   -2.2682   -1.1898 N   0  0  0  0  0  0  0  0  0  0  0  0
   -2.6052   -0.9215   -1.5115 C   0  0  0  0  0  0  0  0  0  0  0  0
   -1.1546   -0.7504   -1.1044 C   0  0  0  0  0  0  0  0  0  0  0  0
   -0.1202   -1.4028   -1.8171 C   0  0  0  0  0  0  0  0  0  0  0  0
   -0.3916   -2.2893   -2.9093 N   0  0  0  0  0  0  0  0  0  0  0  0
    1.1750   -1.1849   -1.4715 N   0  0  0  0  0  0  0  0  0  0  0  0
    1.5192   -0.3550   -0.4541 C   0  0  0  0  0  0  0  0  0  0  0  0
    2.9465   -0.1362   -0.1131 C   0  0  0  0  0  0  0  0  0  0  0  0
    3.9653   -0.7880   -0.8356 C   0  0  0  0  0  0  0  0  0  0  0  0
    5.3095   -0.5791   -0.5117 C   0  0  0  0  0  0  0  0  0  0  0  0
    5.6537    0.2800    0.5337 C   0  0  0  0  0  0  0  0  0  0  0  0
    4.6543    0.9327    1.2581 C   0  0  0  0  0  0  0  0  0  0  0  0
    3.3083    0.7281    0.9392 C   0  0  0  0  0  0  0  0  0  0  0  0
    0.5421    0.2702    0.2502 N   0  0  0  0  0  0  0  0  0  0  0  0
   -0.7745    0.0915   -0.0300 C   0  0  0  0  0  0  0  0  0  0  0  0
   -1.7529    0.8141    0.8037 C   0  0  0  0  0  0  0  0  0  0  0  0
   -2.6244    0.1135    1.6527 C   0  0  0  0  0  0  0  0  0  0  0  0
   -3.5337    0.8091    2.4549 C   0  0  0  0  0  0  0  0  0  0  0  0
   -3.5694    2.2060    2.4247 C   0  0  0  0  0  0  0  0  0  0  0  0
   -2.6898    2.9112    1.5961 C   0  0  0  0  0  0  0  0  0  0  0  0
   -2.7271    4.6646    1.5674 Cl  0  0  0  0  0  0  0  0  0  0  0  0
   -1.7786    2.2171    0.7919 C   0  0  0  0  0  0  0  0  0  0  0  0
   -3.1274   -2.3583   -0.1505 H   0  0  0  0  0  0  0  0  0  0  0  0
   -4.0429   -2.3660   -1.5538 H   0  0  0  0  0  0  0  0  0  0  0  0
   -2.6994   -0.7474   -2.6051 H   0  0  0  0  0  0  0  0  0  0  0  0
   -3.2704   -0.1725   -1.0321 H   0  0  0  0  0  0  0  0  0  0  0  0
   -1.3579   -2.5268   -3.2202 H   0  0  0  0  0  0  0  0  0  0  0  0
    0.4018   -2.7388   -3.4180 H   0  0  0  0  0  0  0  0  0  0  0  0
    3.7265   -1.4593   -1.6508 H   0  0  0  0  0  0  0  0  0  0  0  0
    6.0852   -1.0844   -1.0725 H   0  0  0  0  0  0  0  0  0  0  0  0
    6.6948    0.4400    0.7824 H   0  0  0  0  0  0  0  0  0  0  0  0
    4.9225    1.5985    2.0682 H   0  0  0  0  0  0  0  0  0  0  0  0
    2.5538    1.2471    1.5168 H   0  0  0  0  0  0  0  0  0  0  0  0
   -2.5909   -0.9668    1.7030 H   0  0  0  0  0  0  0  0  0  0  0  0
   -4.2067    0.2653    3.1051 H   0  0  0  0  0  0  0  0  0  0  0  0
   -4.2750    2.7388    3.0493 H   0  0  0  0  0  0  0  0  0  0  0  0
   -1.0981    2.7679    0.1536 H   0  0  0  0  0  0  0  0  0  0  0  0
  1  2  1  0
  2  3  1  0
  3  4  2  0
  4  5  1  0
  4  6  1  0
  6  7  2  0
  7  8  1  0
  8  9  2  0
  9 10  1  0
 10 11  2  0
 11 12  1  0
 12 13  2  0
  7 14  1  0
 14 15  2  0
 15 16  1  0
 16 17  2  0
 17 18  1  0
 18 19  2  0
 19 20  1  0
 20 21  1  0
 20 22  2  0
 15  3  1  0
 22 16  1  0
 13  8  1  0
  1 23  1  0
  1 24  1  0
  2 25  1  0
  2 26  1  0
  5 27  1  0
  5 28  1  0
  9 29  1  0
 10 30  1  0
 11 31  1  0
 12 32  1  0
 13 33  1  0
 17 34  1  0
 18 35  1  0
 19 36  1  0
 22 37  1  0
M  END
$$$$
