
     RDKit          3D

 50 54  0  0  0  0  0  0  0  0999 V2000
   -7.0969    2.0081   -0.4537 C   0  0  0  0  0  0  0  0  0  0  0  0
   -6.0685    1.0016   -0.0633 C   0  0  0  0  0  0  0  0  0  0  0  0
   -6.2824    0.0507    0.8898 N   0  0  0  0  0  0  0  0  0  0  0  0
   -5.1218   -0.6230    0.8349 C   0  0  0  0  0  0  0  0  0  0  0  0
   -4.7865   -1.7089    1.5890 N   0  0  0  0  0  0  0  0  0  0  0  0
   -3.5600   -2.2934    1.3964 C   0  0  0  0  0  0  0  0  0  0  0  0
   -2.6892   -1.7523    0.4324 C   0  0  0  0  0  0  0  0  0  0  0  0
   -3.0721   -0.6711   -0.2963 C   0  0  0  0  0  0  0  0  0  0  0  0
   -4.2891   -0.1252   -0.0819 N   0  0  0  0  0  0  0  0  0  0  0  0
   -4.8605    0.9012   -0.6757 N   0  0  0  0  0  0  0  0  0  0  0  0
   -2.0394   -0.2860   -1.2744 C   0  0  0  0  0  0  0  0  0  0  0  0
   -0.8786   -1.1618   -0.9611 N   0  0  0  0  0  0  0  0  0  0  0  0
    0.3184   -0.4000   -0.5118 C   0  0  1  0  0  0  0  0  0  0  0  0
    0.1268    0.3328    0.8431 C   0  0  0  0  0  0  0  0  0  0  0  0
    1.3924    1.1143    1.2086 C   0  0  0  0  0  0  0  0  0  0  0  0
    2.6784    0.2348    1.2272 C   0  0  2  0  0  0  0  0  0  0  0  0
    3.8466    0.8933    0.4972 C   0  0  0  0  0  0  0  0  0  0  0  0
    3.7082    1.3608   -0.8263 C   0  0  0  0  0  0  0  0  0  0  0  0
    4.7933    1.9277   -1.5005 C   0  0  0  0  0  0  0  0  0  0  0  0
    4.6382    2.3797   -2.7696 F   0  0  0  0  0  0  0  0  0  0  0  0
    6.0354    2.0254   -0.8708 C   0  0  0  0  0  0  0  0  0  0  0  0
    7.0891    2.5737   -1.5250 F   0  0  0  0  0  0  0  0  0  0  0  0
    6.1949    1.5512    0.4322 C   0  0  0  0  0  0  0  0  0  0  0  0
    5.1141    0.9825    1.1139 C   0  0  0  0  0  0  0  0  0  0  0  0
    5.3134    0.5131    2.3719 F   0  0  0  0  0  0  0  0  0  0  0  0
    2.4639   -1.2277    0.7305 C   0  0  1  0  0  0  0  0  0  0  0  0
    1.8734   -2.0462    1.7960 N   0  0  0  0  0  0  0  0  0  0  0  0
    1.5865   -1.3000   -0.5428 C   0  0  0  0  0  0  0  0  0  0  0  0
   -1.3494   -2.1989   -0.0003 C   0  0  0  0  0  0  0  0  0  0  0  0
   -7.7323    1.5921   -1.2628 H   0  0  0  0  0  0  0  0  0  0  0  0
   -7.7339    2.2580    0.4206 H   0  0  0  0  0  0  0  0  0  0  0  0
   -6.6030    2.9343   -0.8152 H   0  0  0  0  0  0  0  0  0  0  0  0
   -3.2719   -3.1600    1.9760 H   0  0  0  0  0  0  0  0  0  0  0  0
   -2.4022   -0.5119   -2.2990 H   0  0  0  0  0  0  0  0  0  0  0  0
   -1.8151    0.8003   -1.2049 H   0  0  0  0  0  0  0  0  0  0  0  0
    0.4993    0.3985   -1.2679 H   0  0  0  0  0  0  0  0  0  0  0  0
   -0.7166    1.0514    0.7802 H   0  0  0  0  0  0  0  0  0  0  0  0
   -0.1127   -0.3672    1.6679 H   0  0  0  0  0  0  0  0  0  0  0  0
    1.4876    1.9709    0.5079 H   0  0  0  0  0  0  0  0  0  0  0  0
    1.2426    1.5682    2.2133 H   0  0  0  0  0  0  0  0  0  0  0  0
    2.9616    0.1646    2.3005 H   0  0  0  0  0  0  0  0  0  0  0  0
    2.7605    1.2947   -1.3410 H   0  0  0  0  0  0  0  0  0  0  0  0
    7.1614    1.6193    0.9151 H   0  0  0  0  0  0  0  0  0  0  0  0
    3.4567   -1.6701    0.4802 H   0  0  0  0  0  0  0  0  0  0  0  0
    1.8003   -3.0335    1.4580 H   0  0  0  0  0  0  0  0  0  0  0  0
    2.5408   -2.0781    2.6008 H   0  0  0  0  0  0  0  0  0  0  0  0
    2.2105   -1.0138   -1.4168 H   0  0  0  0  0  0  0  0  0  0  0  0
    1.3111   -2.3599   -0.7339 H   0  0  0  0  0  0  0  0  0  0  0  0
   -0.6786   -2.3456    0.8693 H   0  0  0  0  0  0  0  0  0  0  0  0
   -1.4448   -3.1684   -0.5330 H   0  0  0  0  0  0  0  0  0  0  0  0
  1  2  1  0
  2  3  1  0
  3  4  2  0
  4  5  1  0
  5  6  2  0
  6  7  1  0
  7  8  2  0
  8  9  1  0
  9 10  1  0
  8 11  1  0
 11 12  1  0
 12 13  1  0
 13 14  1  0
 14 15  1  0
 15 16  1  0
 16 17  1  0
 17 18  2  0
 18 19  1  0
 19 20  1  0
 19 21  2  0
 21 22  1  0
 21 23  1  0
 23 24  2  0
 24 25  1  0
 16 26  1  0
 26 27  1  0
 26 28  1  0
 12 29  1  0
 10  2  2  0
 28 13  1  0
  9  4  1  0
 24 17  1  0
 29  7  1  0
  1 30  1  0
  1 31  1  0
  1 32  1  0
  6 33  1  0
 11 34  1  0
 11 35  1  0
 13 36  1  6
 14 37  1  0
 14 38  1  0
 15 39  1  0
 15 40  1  0
 16 41  1  1
 18 42  1  0
 23 43  1  0
 26 44  1  6
 27 45  1  0
 27 46  1  0
 28 47  1  0
 28 48  1  0
 29 49  1  0
 29 50  1  0
M  END
$$$$
