
     RDKit          3D

 41 43  0  0  0  0  0  0  0  0999 V2000
    2.1647    1.3902   -1.2931 O   0  0  0  0  0  0  0  0  0  0  0  0
    2.3908    0.8885   -0.1571 C   0  0  0  0  0  0  0  0  0  0  0  0
    1.3042    0.9467    0.9022 C   0  0  2  0  0  0  0  0  0  0  0  0
    0.2597   -0.1500    0.6783 C   0  0  0  0  0  0  0  0  0  0  0  0
   -1.0852    0.5305    0.8994 C   0  0  2  0  0  0  0  0  0  0  0  0
   -2.1643   -0.0581    0.0619 N   0  0  0  0  0  0  0  0  0  0  0  0
   -3.4103    0.7510    0.1517 C   0  0  0  0  0  0  0  0  0  0  0  0
   -4.6565    0.0118   -0.3853 C   0  0  0  0  0  0  0  0  0  0  0  0
   -4.2639   -1.1404   -1.3087 C   0  0  0  0  0  0  0  0  0  0  0  0
   -3.3569   -2.1402   -0.5762 C   0  0  0  0  0  0  0  0  0  0  0  0
   -2.4447   -1.4564    0.4592 C   0  0  0  0  0  0  0  0  0  0  0  0
   -0.7761    1.9788    0.5275 C   0  0  0  0  0  0  0  0  0  0  0  0
    0.6036    2.2393    0.9241 N   0  0  0  0  0  0  0  0  0  0  0  0
    3.6410    0.2098    0.0783 N   0  0  0  0  0  0  0  0  0  0  0  0
    4.7062    0.2307   -0.9142 C   0  0  0  0  0  0  0  0  0  0  0  0
    5.9521   -0.3608   -0.2777 C   0  0  0  0  0  0  0  0  0  0  0  0
    5.4249   -1.5397    0.9953 S   0  0  0  0  0  0  0  0  0  0  0  0
    3.8940   -0.6013    1.2623 C   0  0  0  0  0  0  0  0  0  0  0  0
    1.7531    0.8107    1.9081 H   0  0  0  0  0  0  0  0  0  0  0  0
    0.3124   -0.5503   -0.3602 H   0  0  0  0  0  0  0  0  0  0  0  0
    0.4091   -0.9858    1.3964 H   0  0  0  0  0  0  0  0  0  0  0  0
   -1.3507    0.4799    1.9817 H   0  0  0  0  0  0  0  0  0  0  0  0
   -3.2823    1.6735   -0.4545 H   0  0  0  0  0  0  0  0  0  0  0  0
   -3.6082    1.0619    1.2030 H   0  0  0  0  0  0  0  0  0  0  0  0
   -5.3125    0.7225   -0.9335 H   0  0  0  0  0  0  0  0  0  0  0  0
   -5.2429   -0.3956    0.4680 H   0  0  0  0  0  0  0  0  0  0  0  0
   -3.7276   -0.7293   -2.1925 H   0  0  0  0  0  0  0  0  0  0  0  0
   -5.1765   -1.6591   -1.6740 H   0  0  0  0  0  0  0  0  0  0  0  0
   -2.7356   -2.6734   -1.3288 H   0  0  0  0  0  0  0  0  0  0  0  0
   -3.9822   -2.9002   -0.0588 H   0  0  0  0  0  0  0  0  0  0  0  0
   -1.5130   -2.0562    0.5273 H   0  0  0  0  0  0  0  0  0  0  0  0
   -2.9289   -1.4817    1.4627 H   0  0  0  0  0  0  0  0  0  0  0  0
   -1.4560    2.6781    1.0593 H   0  0  0  0  0  0  0  0  0  0  0  0
   -0.8838    2.1249   -0.5724 H   0  0  0  0  0  0  0  0  0  0  0  0
    1.0278    2.9444    0.2766 H   0  0  0  0  0  0  0  0  0  0  0  0
    4.4008   -0.3771   -1.7933 H   0  0  0  0  0  0  0  0  0  0  0  0
    4.9111    1.2736   -1.2407 H   0  0  0  0  0  0  0  0  0  0  0  0
    6.5820   -0.8694   -1.0377 H   0  0  0  0  0  0  0  0  0  0  0  0
    6.5444    0.4429    0.2100 H   0  0  0  0  0  0  0  0  0  0  0  0
    4.0143    0.0534    2.1508 H   0  0  0  0  0  0  0  0  0  0  0  0
    3.0619   -1.3182    1.4240 H   0  0  0  0  0  0  0  0  0  0  0  0
  1  2  2  0
  2  3  1  0
  3  4  1  0
  4  5  1  0
  5  6  1  0
  6  7  1  0
  7  8  1  0
  8  9  1  0
  9 10  1  0
 10 11  1  0
  5 12  1  0
 12 13  1  0
  2 14  1  0
 14 15  1  0
 15 16  1  0
 16 17  1  0
 17 18  1  0
 13  3  1  0
 18 14  1  0
 11  6  1  0
  3 19  1  1
  4 20  1  0
  4 21  1  0
  5 22  1  1
  7 23  1  0
  7 24  1  0
  8 25  1  0
  8 26  1  0
  9 27  1  0
  9 28  1  0
 10 29  1  0
 10 30  1  0
 11 31  1  0
 11 32  1  0
 12 33  1  0
 12 34  1  0
 13 35  1  0
 15 36  1  0
 15 37  1  0
 16 38  1  0
 16 39  1  0
 18 40  1  0
 18 41  1  0
M  END
$$$$
