
     RDKit          3D

 48 50  0  0  0  0  0  0  0  0999 V2000
   -3.1960    1.7491    0.4106 C   0  0  0  0  0  0  0  0  0  0  0  0
   -2.9499    0.5556   -0.5621 C   0  0  0  0  0  0  0  0  0  0  0  0
   -4.3684    0.0567   -0.9818 C   0  0  0  0  0  0  0  0  0  0  0  0
   -2.0387    0.9039   -1.7484 C   0  0  2  0  0  0  0  0  0  0  0  0
   -1.8613   -0.4506   -2.4743 C   0  0  0  0  0  0  0  0  0  0  0  0
   -1.8321   -1.4592   -1.3099 C   0  0  0  0  0  0  0  0  0  0  0  0
   -1.9844   -0.5451   -0.0587 C   0  0  2  0  0  0  0  0  0  0  0  0
   -2.4613   -1.3361    1.1715 C   0  0  0  0  0  0  0  0  0  0  0  0
   -0.6023    0.1894    0.0851 C   0  0  2  0  0  0  0  0  0  0  0  0
   -0.4162    0.8559    1.3912 N   0  0  0  0  0  0  0  0  0  0  0  0
    0.9499    1.3822    1.5636 C   0  0  0  0  0  0  0  0  0  0  0  0
    1.9444    0.2839    1.8621 C   0  0  0  0  0  0  0  0  0  0  0  0
    1.8492   -0.3287    2.9604 O   0  0  0  0  0  0  0  0  0  0  0  0
    2.9789   -0.0901    0.9294 N   0  0  0  0  0  0  0  0  0  0  0  0
    3.2343    0.5846   -0.3343 C   0  0  0  0  0  0  0  0  0  0  0  0
    4.4377   -0.1212   -0.9454 C   0  0  0  0  0  0  0  0  0  0  0  0
    4.5481   -1.4552   -0.2138 C   0  0  0  0  0  0  0  0  0  0  0  0
    3.8378   -1.2499    1.1235 C   0  0  1  0  0  0  0  0  0  0  0  0
    4.8045   -0.9850    2.2020 C   0  0  0  0  0  0  0  0  0  0  0  0
    5.5639   -0.7762    3.0499 N   0  0  0  0  0  0  0  0  0  0  0  0
   -0.6772    1.2162   -1.0790 C   0  0  0  0  0  0  0  0  0  0  0  0
   -3.7424    1.4026    1.3129 H   0  0  0  0  0  0  0  0  0  0  0  0
   -2.2911    2.2744    0.7572 H   0  0  0  0  0  0  0  0  0  0  0  0
   -3.8214    2.5182   -0.0914 H   0  0  0  0  0  0  0  0  0  0  0  0
   -4.3803   -0.8248   -1.6477 H   0  0  0  0  0  0  0  0  0  0  0  0
   -4.9095    0.8677   -1.5148 H   0  0  0  0  0  0  0  0  0  0  0  0
   -4.9584   -0.2163   -0.0809 H   0  0  0  0  0  0  0  0  0  0  0  0
   -2.4129    1.7185   -2.4052 H   0  0  0  0  0  0  0  0  0  0  0  0
   -2.7100   -0.6491   -3.1631 H   0  0  0  0  0  0  0  0  0  0  0  0
   -0.9236   -0.4912   -3.0710 H   0  0  0  0  0  0  0  0  0  0  0  0
   -0.8841   -2.0407   -1.3024 H   0  0  0  0  0  0  0  0  0  0  0  0
   -2.6611   -2.1936   -1.3986 H   0  0  0  0  0  0  0  0  0  0  0  0
   -2.7155   -0.6577    2.0112 H   0  0  0  0  0  0  0  0  0  0  0  0
   -3.3698   -1.9259    0.9272 H   0  0  0  0  0  0  0  0  0  0  0  0
   -1.6663   -2.0385    1.5003 H   0  0  0  0  0  0  0  0  0  0  0  0
    0.2335   -0.5279   -0.0820 H   0  0  0  0  0  0  0  0  0  0  0  0
   -0.5944    0.1780    2.1662 H   0  0  0  0  0  0  0  0  0  0  0  0
    1.2532    1.9897    0.6879 H   0  0  0  0  0  0  0  0  0  0  0  0
    0.9452    2.0817    2.4263 H   0  0  0  0  0  0  0  0  0  0  0  0
    2.3541    0.4791   -1.0013 H   0  0  0  0  0  0  0  0  0  0  0  0
    3.4621    1.6590   -0.1635 H   0  0  0  0  0  0  0  0  0  0  0  0
    5.3562    0.4783   -0.7599 H   0  0  0  0  0  0  0  0  0  0  0  0
    4.3112   -0.2681   -2.0400 H   0  0  0  0  0  0  0  0  0  0  0  0
    4.0074   -2.2327   -0.7976 H   0  0  0  0  0  0  0  0  0  0  0  0
    5.6094   -1.7726   -0.1048 H   0  0  0  0  0  0  0  0  0  0  0  0
    3.2302   -2.1458    1.3778 H   0  0  0  0  0  0  0  0  0  0  0  0
    0.1689    1.0878   -1.7878 H   0  0  0  0  0  0  0  0  0  0  0  0
   -0.6514    2.2695   -0.7283 H   0  0  0  0  0  0  0  0  0  0  0  0
  1  2  1  0
  2  3  1  0
  2  4  1  0
  4  5  1  0
  5  6  1  0
  6  7  1  0
  7  8  1  1
  7  9  1  0
  9 10  1  0
 10 11  1  0
 11 12  1  0
 12 13  2  0
 12 14  1  0
 14 15  1  0
 15 16  1  0
 16 17  1  0
 17 18  1  0
 18 19  1  0
 19 20  3  0
  9 21  1  0
  7  2  1  0
 18 14  1  0
 21  4  1  0
  1 22  1  0
  1 23  1  0
  1 24  1  0
  3 25  1  0
  3 26  1  0
  3 27  1  0
  4 28  1  6
  5 29  1  0
  5 30  1  0
  6 31  1  0
  6 32  1  0
  8 33  1  0
  8 34  1  0
  8 35  1  0
  9 36  1  6
 10 37  1  0
 11 38  1  0
 11 39  1  0
 15 40  1  0
 15 41  1  0
 16 42  1  0
 16 43  1  0
 17 44  1  0
 17 45  1  0
 18 46  1  1
 21 47  1  0
 21 48  1  0
M  END
$$$$
