
     RDKit          3D

 55 59  0  0  0  0  0  0  0  0999 V2000
   -5.9354   -0.1508    1.8127 O   0  0  0  0  0  0  0  0  0  0  0  0
   -4.9896   -0.3709    1.0076 C   0  0  0  0  0  0  0  0  0  0  0  0
   -3.8487   -1.2456    1.4770 C   0  0  2  0  0  0  0  0  0  0  0  0
   -2.5473   -0.4701    1.6261 C   0  0  0  0  0  0  0  0  0  0  0  0
   -1.4684   -1.5016    1.3347 C   0  0  2  0  0  0  0  0  0  0  0  0
   -0.2351   -0.8944    0.7660 N   0  0  0  0  0  0  0  0  0  0  0  0
    0.4106    0.0229    1.7284 C   0  0  0  0  0  0  0  0  0  0  0  0
    1.4607    0.8524    0.9912 C   0  0  0  0  0  0  0  0  0  0  0  0
    2.2510    0.0044    0.0978 N   0  0  0  0  0  0  0  0  0  0  0  0
    3.1942    0.6132   -0.7940 C   0  0  0  0  0  0  0  0  0  0  0  0
    2.7751    0.9773   -2.0783 C   0  0  0  0  0  0  0  0  0  0  0  0
    3.6807    1.5641   -2.9626 C   0  0  0  0  0  0  0  0  0  0  0  0
    4.9656    1.7823   -2.5802 N   0  0  0  0  0  0  0  0  0  0  0  0
    5.4122    1.4441   -1.3410 C   0  0  0  0  0  0  0  0  0  0  0  0
    6.7449    1.6893   -0.9912 C   0  0  0  0  0  0  0  0  0  0  0  0
    7.2108    1.3468    0.2819 C   0  0  0  0  0  0  0  0  0  0  0  0
    8.8818    1.6565    0.7162 Cl  0  0  0  0  0  0  0  0  0  0  0  0
    6.3454    0.7591    1.2098 C   0  0  0  0  0  0  0  0  0  0  0  0
    5.0123    0.5093    0.8712 C   0  0  0  0  0  0  0  0  0  0  0  0
    4.5309    0.8468   -0.4074 C   0  0  0  0  0  0  0  0  0  0  0  0
    2.1842   -1.4546    0.2053 C   0  0  0  0  0  0  0  0  0  0  0  0
    0.7239   -1.9453    0.3260 C   0  0  0  0  0  0  0  0  0  0  0  0
   -2.1655   -2.4459    0.3470 C   0  0  0  0  0  0  0  0  0  0  0  0
   -3.6124   -2.3601    0.5583 N   0  0  0  0  0  0  0  0  0  0  0  0
   -5.0083    0.2669   -0.2882 N   0  0  0  0  0  0  0  0  0  0  0  0
   -5.8828    1.4036   -0.5402 C   0  0  0  0  0  0  0  0  0  0  0  0
   -5.4696    2.0285   -1.8602 C   0  0  0  0  0  0  0  0  0  0  0  0
   -4.7860    0.7165   -2.9068 S   0  0  0  0  0  0  0  0  0  0  0  0
   -4.2542   -0.2137   -1.4405 C   0  0  0  0  0  0  0  0  0  0  0  0
   -4.1086   -1.6561    2.4826 H   0  0  0  0  0  0  0  0  0  0  0  0
   -2.4853    0.3674    0.8972 H   0  0  0  0  0  0  0  0  0  0  0  0
   -2.4531   -0.0623    2.6565 H   0  0  0  0  0  0  0  0  0  0  0  0
   -1.2361   -2.0596    2.2723 H   0  0  0  0  0  0  0  0  0  0  0  0
   -0.3157    0.7341    2.1733 H   0  0  0  0  0  0  0  0  0  0  0  0
    0.8834   -0.5476    2.5605 H   0  0  0  0  0  0  0  0  0  0  0  0
    2.1266    1.3581    1.7229 H   0  0  0  0  0  0  0  0  0  0  0  0
    0.9423    1.6298    0.3880 H   0  0  0  0  0  0  0  0  0  0  0  0
    1.7525    0.8037   -2.3892 H   0  0  0  0  0  0  0  0  0  0  0  0
    3.3611    1.8463   -3.9568 H   0  0  0  0  0  0  0  0  0  0  0  0
    7.4179    2.1458   -1.7068 H   0  0  0  0  0  0  0  0  0  0  0  0
    6.7053    0.4955    2.1962 H   0  0  0  0  0  0  0  0  0  0  0  0
    4.3666    0.0570    1.6123 H   0  0  0  0  0  0  0  0  0  0  0  0
    2.6671   -1.9342   -0.6751 H   0  0  0  0  0  0  0  0  0  0  0  0
    2.7512   -1.7694    1.1079 H   0  0  0  0  0  0  0  0  0  0  0  0
    0.4099   -2.3118   -0.6747 H   0  0  0  0  0  0  0  0  0  0  0  0
    0.7084   -2.8165    1.0201 H   0  0  0  0  0  0  0  0  0  0  0  0
   -1.8034   -3.4899    0.4825 H   0  0  0  0  0  0  0  0  0  0  0  0
   -1.9545   -2.1379   -0.6994 H   0  0  0  0  0  0  0  0  0  0  0  0
   -3.9421   -3.2473    1.0077 H   0  0  0  0  0  0  0  0  0  0  0  0
   -6.9358    1.0519   -0.5963 H   0  0  0  0  0  0  0  0  0  0  0  0
   -5.7877    2.1542    0.2745 H   0  0  0  0  0  0  0  0  0  0  0  0
   -6.3368    2.5092   -2.3599 H   0  0  0  0  0  0  0  0  0  0  0  0
   -4.6784    2.7891   -1.6862 H   0  0  0  0  0  0  0  0  0  0  0  0
   -4.4670   -1.2873   -1.6198 H   0  0  0  0  0  0  0  0  0  0  0  0
   -3.1685   -0.0532   -1.2871 H   0  0  0  0  0  0  0  0  0  0  0  0
  1  2  2  0
  2  3  1  0
  3  4  1  0
  4  5  1  0
  5  6  1  0
  6  7  1  0
  7  8  1  0
  8  9  1  0
  9 10  1  0
 10 11  2  0
 11 12  1  0
 12 13  2  0
 13 14  1  0
 14 15  2  0
 15 16  1  0
 16 17  1  0
 16 18  2  0
 18 19  1  0
 19 20  2  0
  9 21  1  0
 21 22  1  0
  5 23  1  0
 23 24  1  0
  2 25  1  0
 25 26  1  0
 26 27  1  0
 27 28  1  0
 28 29  1  0
 24  3  1  0
 29 25  1  0
 22  6  1  0
 20 10  1  0
 20 14  1  0
  3 30  1  1
  4 31  1  0
  4 32  1  0
  5 33  1  1
  7 34  1  0
  7 35  1  0
  8 36  1  0
  8 37  1  0
 11 38  1  0
 12 39  1  0
 15 40  1  0
 18 41  1  0
 19 42  1  0
 21 43  1  0
 21 44  1  0
 22 45  1  0
 22 46  1  0
 23 47  1  0
 23 48  1  0
 24 49  1  0
 26 50  1  0
 26 51  1  0
 27 52  1  0
 27 53  1  0
 29 54  1  0
 29 55  1  0
M  END
$$$$
