
     RDKit          3D

 90 96  0  0  0  0  0  0  0  0999 V2000
    7.0087    4.0585   -3.7825 C   0  0  0  0  0  0  0  0  0  0  0  0
    7.4963    3.1486   -2.7324 N   0  0  0  0  0  0  0  0  0  0  0  0
    7.9175    1.8814   -3.0663 C   0  0  0  0  0  0  0  0  0  0  0  0
    7.9098    1.4857   -4.2642 O   0  0  0  0  0  0  0  0  0  0  0  0
    8.3425    1.0380   -2.0461 C   0  0  0  0  0  0  0  0  0  0  0  0
    8.3159    1.4564   -0.7600 C   0  0  0  0  0  0  0  0  0  0  0  0
    8.7149    0.4754    0.0717 N   0  0  0  0  0  0  0  0  0  0  0  0
    8.9877   -0.5479   -0.7779 C   0  0  0  0  0  0  0  0  0  0  0  0
    9.5432   -2.1124   -0.1941 S   0  0  0  0  0  0  0  0  0  0  0  0
   11.2675   -2.3277   -0.5775 C   0  0  0  0  0  0  0  0  0  0  0  0
    9.3669   -2.1689    1.2973 O   0  0  0  0  0  0  0  0  0  0  0  0
    8.7300   -3.2116   -0.8176 O   0  0  0  0  0  0  0  0  0  0  0  0
    8.7782   -0.2350   -2.0870 N   0  0  0  0  0  0  0  0  0  0  0  0
    8.9155   -1.0897   -3.2666 C   0  0  0  0  0  0  0  0  0  0  0  0
    7.8877    2.6985   -0.4044 N   0  0  0  0  0  0  0  0  0  0  0  0
    7.8226    3.0858    1.0136 C   0  0  0  0  0  0  0  0  0  0  0  0
    6.5338    2.6794    1.5823 C   0  0  0  0  0  0  0  0  0  0  0  0
    5.4735    2.3372    2.0418 C   0  0  0  0  0  0  0  0  0  0  0  0
    4.2071    1.9219    2.5838 C   0  0  0  0  0  0  0  0  0  0  0  0
    3.5987    2.6697    3.5987 C   0  0  0  0  0  0  0  0  0  0  0  0
    2.3632    2.2710    4.1148 C   0  0  0  0  0  0  0  0  0  0  0  0
    1.7357    1.1210    3.6270 C   0  0  0  0  0  0  0  0  0  0  0  0
    2.3492    0.3495    2.6227 C   0  0  0  0  0  0  0  0  0  0  0  0
    1.7136   -0.8220    2.0840 N   0  0  0  0  0  0  0  0  0  0  0  0
    0.8746   -1.7037    2.8455 C   0  0  0  0  0  0  0  0  0  0  0  0
    0.8832   -1.6704    4.1057 O   0  0  0  0  0  0  0  0  0  0  0  0
    0.0101   -2.7073    2.1392 C   0  0  0  0  0  0  0  0  0  0  0  0
   -0.9116   -2.0408    1.1949 N   0  0  0  0  0  0  0  0  0  0  0  0
   -1.5633   -3.0235    0.2889 C   0  0  0  0  0  0  0  0  0  0  0  0
   -3.0175   -3.3306    0.6710 C   0  0  0  0  0  0  0  0  0  0  0  0
   -3.7972   -2.0876    0.7282 N   0  0  0  0  0  0  0  0  0  0  0  0
   -5.2176   -2.0947    0.4637 C   0  0  0  0  0  0  0  0  0  0  0  0
   -6.0093   -3.2234    0.8099 C   0  0  0  0  0  0  0  0  0  0  0  0
   -7.3924   -3.2400    0.5605 C   0  0  0  0  0  0  0  0  0  0  0  0
   -7.9637   -2.1221   -0.0388 C   0  0  0  0  0  0  0  0  0  0  0  0
   -7.2096   -1.0230   -0.3781 C   0  0  0  0  0  0  0  0  0  0  0  0
   -5.8385   -0.9745   -0.1393 C   0  0  0  0  0  0  0  0  0  0  0  0
   -8.1081   -0.0341   -0.9619 C   0  0  0  0  0  0  0  0  0  0  0  0
   -7.7754    1.1196   -1.3430 O   0  0  0  0  0  0  0  0  0  0  0  0
   -9.4456   -0.5481   -1.0109 N   0  0  0  0  0  0  0  0  0  0  0  0
  -10.6826    0.2163   -1.2034 C   0  0  0  0  0  0  0  0  0  0  0  0
  -10.9365    1.1209    0.0162 C   0  0  0  0  0  0  0  0  0  0  0  0
  -12.1691    2.0066   -0.1906 C   0  0  0  0  0  0  0  0  0  0  0  0
  -12.0345    2.8084   -1.4518 C   0  0  0  0  0  0  0  0  0  0  0  0
  -12.6150    3.9218   -1.5514 O   0  0  0  0  0  0  0  0  0  0  0  0
  -11.2970    2.2876   -2.5628 N   0  0  0  0  0  0  0  0  0  0  0  0
  -10.6258    1.0252   -2.4767 C   0  0  0  0  0  0  0  0  0  0  0  0
  -10.0458    0.5594   -3.4943 O   0  0  0  0  0  0  0  0  0  0  0  0
   -9.3470   -1.8398   -0.4031 C   0  0  0  0  0  0  0  0  0  0  0  0
  -10.3279   -2.6025   -0.1963 O   0  0  0  0  0  0  0  0  0  0  0  0
   -3.1091   -0.8385    1.0772 C   0  0  0  0  0  0  0  0  0  0  0  0
   -1.8572   -1.1421    1.9063 C   0  0  0  0  0  0  0  0  0  0  0  0
    3.5793    0.7696    2.0929 C   0  0  0  0  0  0  0  0  0  0  0  0
    7.4526    3.5422   -1.4051 C   0  0  0  0  0  0  0  0  0  0  0  0
    6.9999    4.6831   -1.1045 O   0  0  0  0  0  0  0  0  0  0  0  0
    7.5113    3.8626   -4.7537 H   0  0  0  0  0  0  0  0  0  0  0  0
    5.9130    3.9296   -3.9071 H   0  0  0  0  0  0  0  0  0  0  0  0
    7.2255    5.1177   -3.5267 H   0  0  0  0  0  0  0  0  0  0  0  0
   11.8569   -1.5211   -0.0948 H   0  0  0  0  0  0  0  0  0  0  0  0
   11.6116   -3.3116   -0.1976 H   0  0  0  0  0  0  0  0  0  0  0  0
   11.4206   -2.2848   -1.6747 H   0  0  0  0  0  0  0  0  0  0  0  0
    7.9105   -1.3219   -3.6769 H   0  0  0  0  0  0  0  0  0  0  0  0
    9.4282   -2.0395   -3.0222 H   0  0  0  0  0  0  0  0  0  0  0  0
    9.5203   -0.5705   -4.0390 H   0  0  0  0  0  0  0  0  0  0  0  0
    8.6420    2.6056    1.5904 H   0  0  0  0  0  0  0  0  0  0  0  0
    7.9472    4.1830    1.1344 H   0  0  0  0  0  0  0  0  0  0  0  0
    4.0744    3.5637    3.9837 H   0  0  0  0  0  0  0  0  0  0  0  0
    1.8863    2.8595    4.8880 H   0  0  0  0  0  0  0  0  0  0  0  0
    0.7626    0.8529    4.0161 H   0  0  0  0  0  0  0  0  0  0  0  0
    1.9164   -1.0811    1.0918 H   0  0  0  0  0  0  0  0  0  0  0  0
   -0.5591   -3.3209    2.8739 H   0  0  0  0  0  0  0  0  0  0  0  0
    0.6965   -3.3885    1.5902 H   0  0  0  0  0  0  0  0  0  0  0  0
   -0.9993   -3.9810    0.2275 H   0  0  0  0  0  0  0  0  0  0  0  0
   -1.5570   -2.5995   -0.7384 H   0  0  0  0  0  0  0  0  0  0  0  0
   -3.4423   -4.0138   -0.0968 H   0  0  0  0  0  0  0  0  0  0  0  0
   -3.0504   -3.8380    1.6591 H   0  0  0  0  0  0  0  0  0  0  0  0
   -5.5598   -4.0835    1.2882 H   0  0  0  0  0  0  0  0  0  0  0  0
   -7.9957   -4.0967    0.8314 H   0  0  0  0  0  0  0  0  0  0  0  0
   -5.2715   -0.0984   -0.4250 H   0  0  0  0  0  0  0  0  0  0  0  0
  -11.5347   -0.4915   -1.3024 H   0  0  0  0  0  0  0  0  0  0  0  0
  -10.0512    1.7690    0.2004 H   0  0  0  0  0  0  0  0  0  0  0  0
  -11.0895    0.4894    0.9181 H   0  0  0  0  0  0  0  0  0  0  0  0
  -12.2792    2.6887    0.6802 H   0  0  0  0  0  0  0  0  0  0  0  0
  -13.0799    1.3738   -0.2587 H   0  0  0  0  0  0  0  0  0  0  0  0
  -11.2482    2.8367   -3.4505 H   0  0  0  0  0  0  0  0  0  0  0  0
   -3.7800   -0.1898    1.6823 H   0  0  0  0  0  0  0  0  0  0  0  0
   -2.8266   -0.2964    0.1491 H   0  0  0  0  0  0  0  0  0  0  0  0
   -1.3461   -0.1817    2.1335 H   0  0  0  0  0  0  0  0  0  0  0  0
   -2.1840   -1.5914    2.8722 H   0  0  0  0  0  0  0  0  0  0  0  0
    4.0497    0.1924    1.3050 H   0  0  0  0  0  0  0  0  0  0  0  0
  1  2  1  0
  2  3  1  0
  3  4  2  0
  3  5  1  0
  5  6  2  0
  6  7  1  0
  7  8  2  0
  8  9  1  0
  9 10  1  0
  9 11  2  0
  9 12  2  0
  8 13  1  0
 13 14  1  0
  6 15  1  0
 15 16  1  0
 16 17  1  0
 17 18  3  0
 18 19  1  0
 19 20  2  0
 20 21  1  0
 21 22  2  0
 22 23  1  0
 23 24  1  0
 24 25  1  0
 25 26  2  0
 25 27  1  0
 27 28  1  0
 28 29  1  0
 29 30  1  0
 30 31  1  0
 31 32  1  0
 32 33  2  0
 33 34  1  0
 34 35  2  0
 35 36  1  0
 36 37  2  0
 36 38  1  0
 38 39  2  0
 38 40  1  0
 40 41  1  0
 41 42  1  0
 42 43  1  0
 43 44  1  0
 44 45  2  0
 44 46  1  0
 46 47  1  0
 47 48  2  0
 40 49  1  0
 49 50  2  0
 31 51  1  0
 51 52  1  0
 23 53  2  0
 15 54  1  0
 54 55  2  0
 54  2  1  0
 13  5  1  0
 53 19  1  0
 52 28  1  0
 37 32  1  0
 47 41  1  0
 49 35  1  0
  1 56  1  0
  1 57  1  0
  1 58  1  0
 10 59  1  0
 10 60  1  0
 10 61  1  0
 14 62  1  0
 14 63  1  0
 14 64  1  0
 16 65  1  0
 16 66  1  0
 20 67  1  0
 21 68  1  0
 22 69  1  0
 24 70  1  0
 27 71  1  0
 27 72  1  0
 29 73  1  0
 29 74  1  0
 30 75  1  0
 30 76  1  0
 33 77  1  0
 34 78  1  0
 37 79  1  0
 41 80  1  0
 42 81  1  0
 42 82  1  0
 43 83  1  0
 43 84  1  0
 46 85  1  0
 51 86  1  0
 51 87  1  0
 52 88  1  0
 52 89  1  0
 53 90  1  0
M  END
$$$$
