
     RDKit          3D

 55 58  0  0  0  0  0  0  0  0999 V2000
    2.0685   -2.5385    1.6822 C   0  0  0  0  0  0  0  0  0  0  0  0
    1.3651   -1.5104    0.8444 C   0  0  0  0  0  0  0  0  0  0  0  0
    0.0777   -1.7365    0.4922 N   0  0  0  0  0  0  0  0  0  0  0  0
   -0.6396   -0.8484   -0.2408 C   0  0  0  0  0  0  0  0  0  0  0  0
   -1.9676   -1.2172   -0.6423 N   0  0  0  0  0  0  0  0  0  0  0  0
   -2.2064   -1.6198   -2.0351 C   0  0  0  0  0  0  0  0  0  0  0  0
   -3.6859   -1.9346   -2.2723 C   0  0  0  0  0  0  0  0  0  0  0  0
   -4.2037   -2.9801   -1.2714 C   0  0  0  0  0  0  0  0  0  0  0  0
   -3.7285   -2.7459    0.1893 C   0  0  1  0  0  0  0  0  0  0  0  0
   -2.8684   -3.8524    0.6214 N   0  0  0  0  0  0  0  0  0  0  0  0
   -3.0130   -1.3905    0.3731 C   0  0  0  0  0  0  0  0  0  0  0  0
   -0.0799    0.3520   -0.6145 N   0  0  0  0  0  0  0  0  0  0  0  0
   -0.8891    1.3736   -1.3214 C   0  0  0  0  0  0  0  0  0  0  0  0
   -0.7305    2.7601   -0.7231 C   0  0  0  0  0  0  0  0  0  0  0  0
   -0.2459    3.8028   -1.5350 C   0  0  0  0  0  0  0  0  0  0  0  0
   -0.0876    5.0911   -1.0197 C   0  0  0  0  0  0  0  0  0  0  0  0
   -0.4162    5.3586    0.3090 C   0  0  0  0  0  0  0  0  0  0  0  0
   -0.9074    4.3394    1.1266 C   0  0  0  0  0  0  0  0  0  0  0  0
   -1.0715    3.0415    0.6218 C   0  0  0  0  0  0  0  0  0  0  0  0
   -1.5865    2.0240    1.5044 C   0  0  0  0  0  0  0  0  0  0  0  0
   -1.9981    1.2145    2.2211 N   0  0  0  0  0  0  0  0  0  0  0  0
    1.2568    0.5696   -0.3714 C   0  0  0  0  0  0  0  0  0  0  0  0
    1.8296    1.5953   -0.8352 O   0  0  0  0  0  0  0  0  0  0  0  0
    2.0085   -0.3503    0.3816 C   0  0  0  0  0  0  0  0  0  0  0  0
    3.4355   -0.0829    0.6802 C   0  0  0  0  0  0  0  0  0  0  0  0
    4.4392   -0.9238    0.1722 C   0  0  0  0  0  0  0  0  0  0  0  0
    5.7839   -0.6632    0.4534 C   0  0  0  0  0  0  0  0  0  0  0  0
    6.1347    0.4393    1.2376 C   0  0  0  0  0  0  0  0  0  0  0  0
    5.1415    1.2848    1.7399 C   0  0  0  0  0  0  0  0  0  0  0  0
    3.7956    1.0275    1.4613 C   0  0  0  0  0  0  0  0  0  0  0  0
    2.7235   -3.1626    1.0400 H   0  0  0  0  0  0  0  0  0  0  0  0
    2.6763   -2.0487    2.4719 H   0  0  0  0  0  0  0  0  0  0  0  0
    1.3287   -3.2008    2.1801 H   0  0  0  0  0  0  0  0  0  0  0  0
   -1.8993   -0.8092   -2.7280 H   0  0  0  0  0  0  0  0  0  0  0  0
   -1.5954   -2.5193   -2.2666 H   0  0  0  0  0  0  0  0  0  0  0  0
   -3.8259   -2.3094   -3.3092 H   0  0  0  0  0  0  0  0  0  0  0  0
   -4.2777   -0.9986   -2.1686 H   0  0  0  0  0  0  0  0  0  0  0  0
   -5.3151   -2.9692   -1.3031 H   0  0  0  0  0  0  0  0  0  0  0  0
   -3.8900   -3.9889   -1.6207 H   0  0  0  0  0  0  0  0  0  0  0  0
   -4.6272   -2.7409    0.8460 H   0  0  0  0  0  0  0  0  0  0  0  0
   -2.6386   -3.7285    1.6344 H   0  0  0  0  0  0  0  0  0  0  0  0
   -1.9682   -3.8240    0.0894 H   0  0  0  0  0  0  0  0  0  0  0  0
   -3.7512   -0.5656    0.2729 H   0  0  0  0  0  0  0  0  0  0  0  0
   -2.5861   -1.3286    1.3979 H   0  0  0  0  0  0  0  0  0  0  0  0
   -0.6050    1.3680   -2.3963 H   0  0  0  0  0  0  0  0  0  0  0  0
   -1.9737    1.1423   -1.2796 H   0  0  0  0  0  0  0  0  0  0  0  0
    0.0171    3.6184   -2.5692 H   0  0  0  0  0  0  0  0  0  0  0  0
    0.2907    5.8836   -1.6525 H   0  0  0  0  0  0  0  0  0  0  0  0
   -0.2923    6.3580    0.7057 H   0  0  0  0  0  0  0  0  0  0  0  0
   -1.1613    4.5643    2.1558 H   0  0  0  0  0  0  0  0  0  0  0  0
    4.1810   -1.7734   -0.4477 H   0  0  0  0  0  0  0  0  0  0  0  0
    6.5542   -1.3141    0.0605 H   0  0  0  0  0  0  0  0  0  0  0  0
    7.1761    0.6400    1.4539 H   0  0  0  0  0  0  0  0  0  0  0  0
    5.4144    2.1394    2.3453 H   0  0  0  0  0  0  0  0  0  0  0  0
    3.0341    1.6879    1.8581 H   0  0  0  0  0  0  0  0  0  0  0  0
  1  2  1  0
  2  3  1  0
  3  4  2  0
  4  5  1  0
  5  6  1  0
  6  7  1  0
  7  8  1  0
  8  9  1  0
  9 10  1  0
  9 11  1  0
  4 12  1  0
 12 13  1  0
 13 14  1  0
 14 15  2  0
 15 16  1  0
 16 17  2  0
 17 18  1  0
 18 19  2  0
 19 20  1  0
 20 21  3  0
 12 22  1  0
 22 23  2  0
 22 24  1  0
 24 25  1  0
 25 26  2  0
 26 27  1  0
 27 28  2  0
 28 29  1  0
 29 30  2  0
 24  2  2  0
 30 25  1  0
 11  5  1  0
 19 14  1  0
  1 31  1  0
  1 32  1  0
  1 33  1  0
  6 34  1  0
  6 35  1  0
  7 36  1  0
  7 37  1  0
  8 38  1  0
  8 39  1  0
  9 40  1  1
 10 41  1  0
 10 42  1  0
 11 43  1  0
 11 44  1  0
 13 45  1  0
 13 46  1  0
 15 47  1  0
 16 48  1  0
 17 49  1  0
 18 50  1  0
 26 51  1  0
 27 52  1  0
 28 53  1  0
 29 54  1  0
 30 55  1  0
M  END
$$$$
