
     RDKit          3D

 45 48  0  0  0  0  0  0  0  0999 V2000
    7.6072    1.2611    0.0605 C   0  0  0  0  0  0  0  0  0  0  0  0
    6.8187    1.4510    1.6427 S   0  0  0  0  0  0  0  0  0  0  0  0
    7.5436    0.6232    2.6662 O   0  0  0  0  0  0  0  0  0  0  0  0
    6.8576    2.8931    2.0630 O   0  0  0  0  0  0  0  0  0  0  0  0
    5.1755    0.9247    1.5357 N   0  0  0  0  0  0  0  0  0  0  0  0
    4.1863    1.5867    0.8992 C   0  0  0  0  0  0  0  0  0  0  0  0
    3.0782    0.7713    0.9317 C   0  0  0  0  0  0  0  0  0  0  0  0
    3.4680   -0.3546    1.5436 C   0  0  0  0  0  0  0  0  0  0  0  0
    4.7711   -0.2927    1.8740 N   0  0  0  0  0  0  0  0  0  0  0  0
    2.7143   -1.5174    1.0397 C   0  0  0  0  0  0  0  0  0  0  0  0
    1.6761   -0.9343    0.1491 N   0  0  0  0  0  0  0  0  0  0  0  0
    1.5530   -1.6893   -1.1117 C   0  0  0  0  0  0  0  0  0  0  0  0
    0.3581   -1.2206   -1.8970 C   0  0  0  0  0  0  0  0  0  0  0  0
    0.5231   -0.8974   -3.1044 O   0  0  0  0  0  0  0  0  0  0  0  0
   -0.9527   -1.1179   -1.3017 N   0  0  0  0  0  0  0  0  0  0  0  0
   -1.4035   -1.7940   -0.1241 C   0  0  0  0  0  0  0  0  0  0  0  0
   -0.7148   -2.6704    0.4607 O   0  0  0  0  0  0  0  0  0  0  0  0
   -3.0628   -1.3944    0.4306 S   0  0  0  0  0  0  0  0  0  0  0  0
   -3.2379   -0.3616   -1.0355 C   0  0  0  0  0  0  0  0  0  0  0  0
   -4.3240    0.3712   -1.3282 C   0  0  0  0  0  0  0  0  0  0  0  0
   -5.5729    0.3551   -0.5386 C   0  0  0  0  0  0  0  0  0  0  0  0
   -6.1912   -0.8515   -0.1637 C   0  0  0  0  0  0  0  0  0  0  0  0
   -7.3922   -0.8353    0.5521 C   0  0  0  0  0  0  0  0  0  0  0  0
   -7.9951    0.3814    0.8830 C   0  0  0  0  0  0  0  0  0  0  0  0
   -9.1610    0.3923    1.5754 F   0  0  0  0  0  0  0  0  0  0  0  0
   -7.4020    1.5848    0.4885 C   0  0  0  0  0  0  0  0  0  0  0  0
   -7.9921    2.7662    0.7964 F   0  0  0  0  0  0  0  0  0  0  0  0
   -6.2007    1.5716   -0.2282 C   0  0  0  0  0  0  0  0  0  0  0  0
   -2.0057   -0.3127   -1.8216 C   0  0  0  0  0  0  0  0  0  0  0  0
   -1.8753    0.3901   -2.8608 O   0  0  0  0  0  0  0  0  0  0  0  0
    2.0351    0.4934   -0.0715 C   0  0  0  0  0  0  0  0  0  0  0  0
    8.6645    1.5904    0.1294 H   0  0  0  0  0  0  0  0  0  0  0  0
    7.5711    0.1952   -0.2454 H   0  0  0  0  0  0  0  0  0  0  0  0
    7.0768    1.8780   -0.6939 H   0  0  0  0  0  0  0  0  0  0  0  0
    4.3156    2.4933    0.3226 H   0  0  0  0  0  0  0  0  0  0  0  0
    3.4090   -2.1989    0.4974 H   0  0  0  0  0  0  0  0  0  0  0  0
    2.2333   -2.0562    1.8824 H   0  0  0  0  0  0  0  0  0  0  0  0
    2.4798   -1.5847   -1.7215 H   0  0  0  0  0  0  0  0  0  0  0  0
    1.4259   -2.7726   -0.8993 H   0  0  0  0  0  0  0  0  0  0  0  0
   -4.2778    1.0650   -2.1595 H   0  0  0  0  0  0  0  0  0  0  0  0
   -5.7590   -1.8039   -0.4427 H   0  0  0  0  0  0  0  0  0  0  0  0
   -7.8600   -1.7675    0.8414 H   0  0  0  0  0  0  0  0  0  0  0  0
   -5.7534    2.5103   -0.5323 H   0  0  0  0  0  0  0  0  0  0  0  0
    2.4418    0.6801   -1.0914 H   0  0  0  0  0  0  0  0  0  0  0  0
    1.1505    1.1394    0.1078 H   0  0  0  0  0  0  0  0  0  0  0  0
  1  2  1  0
  2  3  2  0
  2  4  2  0
  2  5  1  0
  5  6  1  0
  6  7  2  0
  7  8  1  0
  8  9  2  0
  8 10  1  0
 10 11  1  0
 11 12  1  0
 12 13  1  0
 13 14  2  0
 13 15  1  0
 15 16  1  0
 16 17  2  0
 16 18  1  0
 18 19  1  0
 19 20  2  0
 20 21  1  0
 21 22  2  0
 22 23  1  0
 23 24  2  0
 24 25  1  0
 24 26  1  0
 26 27  1  0
 26 28  2  0
 19 29  1  0
 29 30  2  0
 11 31  1  0
  9  5  1  0
 29 15  1  0
 31  7  1  0
 28 21  1  0
  1 32  1  0
  1 33  1  0
  1 34  1  0
  6 35  1  0
 10 36  1  0
 10 37  1  0
 12 38  1  0
 12 39  1  0
 20 40  1  0
 22 41  1  0
 23 42  1  0
 28 43  1  0
 31 44  1  0
 31 45  1  0
M  END
$$$$
