
     RDKit          3D

 59 60  0  0  0  0  0  0  0  0999 V2000
   -3.7142   -1.4899   -0.9627 C   0  0  0  0  0  0  0  0  0  0  0  0
   -2.8228   -0.4029   -0.5442 N   0  0  0  0  0  0  0  0  0  0  0  0
   -1.3856   -0.6773   -0.3949 C   0  0  0  0  0  0  0  0  0  0  0  0
   -1.1142   -1.6136    0.8022 C   0  0  2  0  0  0  0  0  0  0  0  0
   -1.4900   -0.9566    2.1353 C   0  0  0  0  0  0  0  0  0  0  0  0
   -0.3663   -1.3073    3.1038 C   0  0  0  0  0  0  0  0  0  0  0  0
    0.8409   -1.6287    2.2358 C   0  0  0  0  0  0  0  0  0  0  0  0
    0.3078   -1.9158    0.9140 N   0  0  0  0  0  0  0  0  0  0  0  0
    1.0562   -2.6063   -0.1036 C   0  0  0  0  0  0  0  0  0  0  0  0
    0.4492   -3.2713   -0.9863 O   0  0  0  0  0  0  0  0  0  0  0  0
    2.5556   -2.5043   -0.1682 C   0  0  0  0  0  0  0  0  0  0  0  0
    3.0077   -1.1094   -0.6512 C   0  0  2  0  0  0  0  0  0  0  0  0
    2.6600   -0.9264   -2.0654 N   0  0  0  0  0  0  0  0  0  0  0  0
    4.5315   -0.9611   -0.4532 C   0  0  0  0  0  0  0  0  0  0  0  0
    4.9985    0.4539   -0.6970 C   0  0  0  0  0  0  0  0  0  0  0  0
    4.7919    1.4344    0.2886 C   0  0  0  0  0  0  0  0  0  0  0  0
    5.1989    2.7540    0.0699 C   0  0  0  0  0  0  0  0  0  0  0  0
    4.9958    3.6914    1.0286 F   0  0  0  0  0  0  0  0  0  0  0  0
    5.8115    3.1067   -1.1362 C   0  0  0  0  0  0  0  0  0  0  0  0
    6.2055    4.3864   -1.3502 F   0  0  0  0  0  0  0  0  0  0  0  0
    6.0155    2.1402   -2.1248 C   0  0  0  0  0  0  0  0  0  0  0  0
    5.6104    0.8183   -1.9118 C   0  0  0  0  0  0  0  0  0  0  0  0
    5.8086   -0.0997   -2.8917 F   0  0  0  0  0  0  0  0  0  0  0  0
   -3.2617    0.9646   -0.6741 C   0  0  0  0  0  0  0  0  0  0  0  0
   -2.6222    1.7277   -1.4506 O   0  0  0  0  0  0  0  0  0  0  0  0
   -4.4879    1.5047    0.0640 C   0  0  0  0  0  0  0  0  0  0  0  0
   -5.7706    1.1449   -0.7099 C   0  0  0  0  0  0  0  0  0  0  0  0
   -4.3998    3.0446    0.1750 C   0  0  0  0  0  0  0  0  0  0  0  0
   -4.5625    0.9327    1.4941 C   0  0  0  0  0  0  0  0  0  0  0  0
   -4.2471   -1.2086   -1.8957 H   0  0  0  0  0  0  0  0  0  0  0  0
   -4.4478   -1.7170   -0.1648 H   0  0  0  0  0  0  0  0  0  0  0  0
   -3.1429   -2.4182   -1.1757 H   0  0  0  0  0  0  0  0  0  0  0  0
   -1.0094   -1.1325   -1.3353 H   0  0  0  0  0  0  0  0  0  0  0  0
   -0.8157    0.2676   -0.2466 H   0  0  0  0  0  0  0  0  0  0  0  0
   -1.6732   -2.5676    0.6868 H   0  0  0  0  0  0  0  0  0  0  0  0
   -1.5337    0.1503    2.0392 H   0  0  0  0  0  0  0  0  0  0  0  0
   -2.4706   -1.3270    2.5053 H   0  0  0  0  0  0  0  0  0  0  0  0
   -0.1526   -0.4683    3.8012 H   0  0  0  0  0  0  0  0  0  0  0  0
   -0.6535   -2.2070    3.6917 H   0  0  0  0  0  0  0  0  0  0  0  0
    1.3773   -2.5129    2.6436 H   0  0  0  0  0  0  0  0  0  0  0  0
    1.5282   -0.7574    2.1826 H   0  0  0  0  0  0  0  0  0  0  0  0
    2.9702   -2.7156    0.8400 H   0  0  0  0  0  0  0  0  0  0  0  0
    2.9566   -3.2834   -0.8537 H   0  0  0  0  0  0  0  0  0  0  0  0
    2.4922   -0.3329   -0.0409 H   0  0  0  0  0  0  0  0  0  0  0  0
    1.6225   -1.0006   -2.1700 H   0  0  0  0  0  0  0  0  0  0  0  0
    2.8871    0.0560   -2.3411 H   0  0  0  0  0  0  0  0  0  0  0  0
    5.0670   -1.6741   -1.1176 H   0  0  0  0  0  0  0  0  0  0  0  0
    4.8016   -1.2379    0.5899 H   0  0  0  0  0  0  0  0  0  0  0  0
    4.3135    1.1745    1.2251 H   0  0  0  0  0  0  0  0  0  0  0  0
    6.4860    2.4164   -3.0598 H   0  0  0  0  0  0  0  0  0  0  0  0
   -6.6544    1.6415   -0.2538 H   0  0  0  0  0  0  0  0  0  0  0  0
   -5.9635    0.0539   -0.6938 H   0  0  0  0  0  0  0  0  0  0  0  0
   -5.6935    1.4755   -1.7683 H   0  0  0  0  0  0  0  0  0  0  0  0
   -3.4636    3.3460    0.6936 H   0  0  0  0  0  0  0  0  0  0  0  0
   -4.4115    3.5165   -0.8315 H   0  0  0  0  0  0  0  0  0  0  0  0
   -5.2605    3.4505    0.7500 H   0  0  0  0  0  0  0  0  0  0  0  0
   -4.6407   -0.1721    1.4924 H   0  0  0  0  0  0  0  0  0  0  0  0
   -3.6618    1.2212    2.0754 H   0  0  0  0  0  0  0  0  0  0  0  0
   -5.4541    1.3294    2.0263 H   0  0  0  0  0  0  0  0  0  0  0  0
  1  2  1  0
  2  3  1  0
  3  4  1  0
  4  5  1  0
  5  6  1  0
  6  7  1  0
  7  8  1  0
  8  9  1  0
  9 10  2  0
  9 11  1  0
 11 12  1  0
 12 13  1  0
 12 14  1  0
 14 15  1  0
 15 16  2  0
 16 17  1  0
 17 18  1  0
 17 19  2  0
 19 20  1  0
 19 21  1  0
 21 22  2  0
 22 23  1  0
  2 24  1  0
 24 25  2  0
 24 26  1  0
 26 27  1  0
 26 28  1  0
 26 29  1  0
  8  4  1  0
 22 15  1  0
  1 30  1  0
  1 31  1  0
  1 32  1  0
  3 33  1  0
  3 34  1  0
  4 35  1  6
  5 36  1  0
  5 37  1  0
  6 38  1  0
  6 39  1  0
  7 40  1  0
  7 41  1  0
 11 42  1  0
 11 43  1  0
 12 44  1  1
 13 45  1  0
 13 46  1  0
 14 47  1  0
 14 48  1  0
 16 49  1  0
 21 50  1  0
 27 51  1  0
 27 52  1  0
 27 53  1  0
 28 54  1  0
 28 55  1  0
 28 56  1  0
 29 57  1  0
 29 58  1  0
 29 59  1  0
M  END
$$$$
