
     RDKit          3D

 53 54  0  0  0  0  0  0  0  0999 V2000
   -6.1696    1.7723    0.5509 C   0  0  0  0  0  0  0  0  0  0  0  0
   -6.8231    0.4928    0.2467 N   0  0  0  0  0  0  0  0  0  0  0  0
   -8.2147    0.5157    0.7138 C   0  0  0  0  0  0  0  0  0  0  0  0
   -5.9673   -0.8029    1.0446 S   0  0  0  0  0  0  0  0  0  0  0  0
   -5.9631   -0.5825    2.5330 O   0  0  0  0  0  0  0  0  0  0  0  0
   -6.6464   -2.1134    0.7576 O   0  0  0  0  0  0  0  0  0  0  0  0
   -4.3122   -0.8847    0.4456 C   0  0  0  0  0  0  0  0  0  0  0  0
   -3.2468   -0.4127    1.2239 C   0  0  0  0  0  0  0  0  0  0  0  0
   -1.9395   -0.4668    0.7320 C   0  0  0  0  0  0  0  0  0  0  0  0
   -1.6795   -0.9874   -0.5411 C   0  0  0  0  0  0  0  0  0  0  0  0
   -0.3511   -1.0191   -0.9884 O   0  0  0  0  0  0  0  0  0  0  0  0
    0.0612   -1.5145   -2.2602 C   0  0  0  0  0  0  0  0  0  0  0  0
    1.5751   -1.3876   -2.3911 C   0  0  0  0  0  0  0  0  0  0  0  0
    1.9724    0.0232   -2.2994 N   0  0  0  0  0  0  0  0  0  0  0  0
    3.4329    0.1728   -2.1798 C   0  0  0  0  0  0  0  0  0  0  0  0
    3.7935    0.7559   -0.8091 C   0  0  0  0  0  0  0  0  0  0  0  0
    3.4145   -0.1940    0.3464 C   0  0  0  0  0  0  0  0  0  0  0  0
    3.9439    0.2957    1.5808 O   0  0  0  0  0  0  0  0  0  0  0  0
    5.2153    0.8740    1.6418 C   0  0  0  0  0  0  0  0  0  0  0  0
    5.8415    1.0996    2.8715 C   0  0  0  0  0  0  0  0  0  0  0  0
    7.1277    1.6505    2.9060 C   0  0  0  0  0  0  0  0  0  0  0  0
    7.7843    1.9770    1.7129 C   0  0  0  0  0  0  0  0  0  0  0  0
    7.1516    1.7646    0.4826 C   0  0  0  0  0  0  0  0  0  0  0  0
    5.8610    1.2277    0.4488 C   0  0  0  0  0  0  0  0  0  0  0  0
    5.1968    1.0360   -0.7666 O   0  0  0  0  0  0  0  0  0  0  0  0
   -2.7521   -1.4562   -1.3238 C   0  0  0  0  0  0  0  0  0  0  0  0
   -4.0594   -1.4015   -0.8311 C   0  0  0  0  0  0  0  0  0  0  0  0
    0.6878    0.0000    0.0000 Cl  0  0  0  0  0  0  0  0  0  0  0  0
   -5.1318    1.7729    0.1566 H   0  0  0  0  0  0  0  0  0  0  0  0
   -6.7086    2.6053    0.0503 H   0  0  0  0  0  0  0  0  0  0  0  0
   -6.1434    1.9654    1.6463 H   0  0  0  0  0  0  0  0  0  0  0  0
   -8.7161   -0.4429    0.4624 H   0  0  0  0  0  0  0  0  0  0  0  0
   -8.7769    1.3243    0.1989 H   0  0  0  0  0  0  0  0  0  0  0  0
   -8.2718    0.6788    1.8130 H   0  0  0  0  0  0  0  0  0  0  0  0
   -3.4251    0.0019    2.2075 H   0  0  0  0  0  0  0  0  0  0  0  0
   -1.1236   -0.0998    1.3418 H   0  0  0  0  0  0  0  0  0  0  0  0
   -0.4323   -0.9353   -3.0709 H   0  0  0  0  0  0  0  0  0  0  0  0
   -0.2207   -2.5857   -2.3529 H   0  0  0  0  0  0  0  0  0  0  0  0
    2.0455   -1.9793   -1.5746 H   0  0  0  0  0  0  0  0  0  0  0  0
    1.8968   -1.8134   -3.3681 H   0  0  0  0  0  0  0  0  0  0  0  0
    1.6577    0.5037   -3.1756 H   0  0  0  0  0  0  0  0  0  0  0  0
    3.8005    0.8768   -2.9607 H   0  0  0  0  0  0  0  0  0  0  0  0
    3.9792   -0.7860   -2.3376 H   0  0  0  0  0  0  0  0  0  0  0  0
    3.2438    1.7132   -0.6701 H   0  0  0  0  0  0  0  0  0  0  0  0
    3.8371   -1.2042    0.1555 H   0  0  0  0  0  0  0  0  0  0  0  0
    2.3108   -0.2801    0.4342 H   0  0  0  0  0  0  0  0  0  0  0  0
    5.3400    0.8373    3.7941 H   0  0  0  0  0  0  0  0  0  0  0  0
    7.6177    1.8196    3.8561 H   0  0  0  0  0  0  0  0  0  0  0  0
    8.7805    2.3991    1.7424 H   0  0  0  0  0  0  0  0  0  0  0  0
    7.6560    2.0280   -0.4382 H   0  0  0  0  0  0  0  0  0  0  0  0
   -2.5870   -1.8620   -2.3124 H   0  0  0  0  0  0  0  0  0  0  0  0
   -4.8754   -1.7596   -1.4461 H   0  0  0  0  0  0  0  0  0  0  0  0
   -0.6878    0.0000    0.0000 H   0  0  0  0  0  0  0  0  0  0  0  0
  1  2  1  0
  2  3  1  0
  2  4  1  0
  4  5  2  0
  4  6  2  0
  4  7  1  0
  7  8  2  0
  8  9  1  0
  9 10  2  0
 10 11  1  0
 11 12  1  0
 12 13  1  0
 13 14  1  0
 14 15  1  0
 15 16  1  0
 16 17  1  0
 17 18  1  0
 18 19  1  0
 19 20  2  0
 20 21  1  0
 21 22  2  0
 22 23  1  0
 23 24  2  0
 24 25  1  0
 10 26  1  0
 26 27  2  0
 27  7  1  0
 25 16  1  0
 24 19  1  0
  1 29  1  0
  1 30  1  0
  1 31  1  0
  3 32  1  0
  3 33  1  0
  3 34  1  0
  8 35  1  0
  9 36  1  0
 12 37  1  0
 12 38  1  0
 13 39  1  0
 13 40  1  0
 14 41  1  0
 15 42  1  0
 15 43  1  0
 16 44  1  0
 17 45  1  0
 17 46  1  0
 20 47  1  0
 21 48  1  0
 22 49  1  0
 23 50  1  0
 26 51  1  0
 27 52  1  0
 28 53  1  0
M  END
$$$$
