
     RDKit          3D

 66 69  0  0  0  0  0  0  0  0999 V2000
    7.1228    5.2622   -0.8181 C   0  0  0  0  0  0  0  0  0  0  0  0
    6.3073    4.1630   -1.1597 O   0  0  0  0  0  0  0  0  0  0  0  0
    5.4956    3.7891   -0.0622 C   0  0  0  0  0  0  0  0  0  0  0  0
    6.1304    2.6152    0.6873 C   0  0  0  0  0  0  0  0  0  0  0  0
    5.2945    2.1921    1.7647 O   0  0  0  0  0  0  0  0  0  0  0  0
    4.1181    1.4356    1.6365 C   0  0  0  0  0  0  0  0  0  0  0  0
    3.3513    1.2012    2.7985 C   0  0  0  0  0  0  0  0  0  0  0  0
    2.1639    0.4521    2.7424 C   0  0  0  0  0  0  0  0  0  0  0  0
    1.7516   -0.0591    1.5134 C   0  0  0  0  0  0  0  0  0  0  0  0
    0.6289   -0.7988    1.3287 N   0  0  0  0  0  0  0  0  0  0  0  0
    0.4590   -1.1482    0.0256 C   0  0  0  0  0  0  0  0  0  0  0  0
   -0.6794   -2.0645   -0.4369 C   0  0  0  0  0  0  0  0  0  0  0  0
   -1.8892   -1.7196    0.3449 N   0  0  0  0  0  0  0  0  0  0  0  0
   -3.2004   -2.2762    0.1369 C   0  0  0  0  0  0  0  0  0  0  0  0
   -3.3768   -3.2278   -0.6697 O   0  0  0  0  0  0  0  0  0  0  0  0
   -4.3807   -1.7162    0.8835 C   0  0  0  0  0  0  0  0  0  0  0  0
   -5.3720   -0.9523   -0.0259 C   0  0  2  0  0  0  0  0  0  0  0  0
   -5.9927   -1.8743   -0.9810 N   0  0  0  0  0  0  0  0  0  0  0  0
   -4.7280    0.2308   -0.7924 C   0  0  0  0  0  0  0  0  0  0  0  0
   -3.9900    1.2076    0.0965 C   0  0  0  0  0  0  0  0  0  0  0  0
   -2.6027    1.3847   -0.0556 C   0  0  0  0  0  0  0  0  0  0  0  0
   -1.9041    2.2660    0.7741 C   0  0  0  0  0  0  0  0  0  0  0  0
   -0.5629    2.4084    0.6314 F   0  0  0  0  0  0  0  0  0  0  0  0
   -2.5876    2.9994    1.7474 C   0  0  0  0  0  0  0  0  0  0  0  0
   -1.9120    3.8565    2.5522 F   0  0  0  0  0  0  0  0  0  0  0  0
   -3.9712    2.8587    1.8840 C   0  0  0  0  0  0  0  0  0  0  0  0
   -4.6747    1.9732    1.0602 C   0  0  0  0  0  0  0  0  0  0  0  0
   -6.0212    1.8762    1.1954 F   0  0  0  0  0  0  0  0  0  0  0  0
   -0.9856   -1.8476   -1.9729 C   0  0  0  0  0  0  0  0  0  0  0  0
   -0.8975   -3.1012   -2.8533 C   0  0  0  0  0  0  0  0  0  0  0  0
    0.6599   -3.9252   -2.6106 S   0  0  0  0  0  0  0  0  0  0  0  0
    0.6047   -5.2986   -3.2178 O   0  0  0  0  0  0  0  0  0  0  0  0
    1.7629   -3.1352   -3.2570 O   0  0  0  0  0  0  0  0  0  0  0  0
    0.9452   -4.0459   -0.8565 C   0  0  0  0  0  0  0  0  0  0  0  0
   -0.2726   -3.5278   -0.0807 C   0  0  0  0  0  0  0  0  0  0  0  0
    1.7569   -0.5802   -0.9220 S   0  0  0  0  0  0  0  0  0  0  0  0
    2.5039    0.1669    0.3766 C   0  0  0  0  0  0  0  0  0  0  0  0
    3.6859    0.9008    0.3998 C   0  0  0  0  0  0  0  0  0  0  0  0
    7.7507    5.0439    0.0739 H   0  0  0  0  0  0  0  0  0  0  0  0
    7.8055    5.4738   -1.6664 H   0  0  0  0  0  0  0  0  0  0  0  0
    6.5064    6.1719   -0.6457 H   0  0  0  0  0  0  0  0  0  0  0  0
    5.2858    4.6242    0.6487 H   0  0  0  0  0  0  0  0  0  0  0  0
    4.5112    3.4729   -0.4639 H   0  0  0  0  0  0  0  0  0  0  0  0
    7.0997    2.9459    1.1149 H   0  0  0  0  0  0  0  0  0  0  0  0
    6.3458    1.7698   -0.0002 H   0  0  0  0  0  0  0  0  0  0  0  0
    3.6792    1.6044    3.7481 H   0  0  0  0  0  0  0  0  0  0  0  0
    1.5812    0.2777    3.6379 H   0  0  0  0  0  0  0  0  0  0  0  0
   -1.8206   -0.9970    1.0961 H   0  0  0  0  0  0  0  0  0  0  0  0
   -4.0365   -1.0440    1.6982 H   0  0  0  0  0  0  0  0  0  0  0  0
   -4.9123   -2.5549    1.3827 H   0  0  0  0  0  0  0  0  0  0  0  0
   -6.1731   -0.5471    0.6316 H   0  0  0  0  0  0  0  0  0  0  0  0
   -6.7240   -1.3532   -1.5181 H   0  0  0  0  0  0  0  0  0  0  0  0
   -6.5052   -2.6127   -0.4456 H   0  0  0  0  0  0  0  0  0  0  0  0
   -5.5256    0.7888   -1.3292 H   0  0  0  0  0  0  0  0  0  0  0  0
   -4.0494   -0.1703   -1.5758 H   0  0  0  0  0  0  0  0  0  0  0  0
   -2.0574    0.8338   -0.8110 H   0  0  0  0  0  0  0  0  0  0  0  0
   -4.5010    3.4397    2.6280 H   0  0  0  0  0  0  0  0  0  0  0  0
   -2.0021   -1.4235   -2.1090 H   0  0  0  0  0  0  0  0  0  0  0  0
   -0.3318   -1.0789   -2.4287 H   0  0  0  0  0  0  0  0  0  0  0  0
   -0.9978   -2.8177   -3.9226 H   0  0  0  0  0  0  0  0  0  0  0  0
   -1.7213   -3.8022   -2.6067 H   0  0  0  0  0  0  0  0  0  0  0  0
    1.8556   -3.4744   -0.5822 H   0  0  0  0  0  0  0  0  0  0  0  0
    1.1227   -5.1092   -0.5899 H   0  0  0  0  0  0  0  0  0  0  0  0
   -0.0495   -3.5951    1.0072 H   0  0  0  0  0  0  0  0  0  0  0  0
   -1.1183   -4.2225   -0.2635 H   0  0  0  0  0  0  0  0  0  0  0  0
    4.2410    1.0433   -0.5162 H   0  0  0  0  0  0  0  0  0  0  0  0
  1  2  1  0
  2  3  1  0
  3  4  1  0
  4  5  1  0
  5  6  1  0
  6  7  2  0
  7  8  1  0
  8  9  2  0
  9 10  1  0
 10 11  2  0
 11 12  1  0
 12 13  1  0
 13 14  1  0
 14 15  2  0
 14 16  1  0
 16 17  1  0
 17 18  1  0
 17 19  1  0
 19 20  1  0
 20 21  2  0
 21 22  1  0
 22 23  1  0
 22 24  2  0
 24 25  1  0
 24 26  1  0
 26 27  2  0
 27 28  1  0
 12 29  1  0
 29 30  1  0
 30 31  1  0
 31 32  2  0
 31 33  2  0
 31 34  1  0
 34 35  1  0
 11 36  1  0
 36 37  1  0
 37 38  2  0
 38  6  1  0
 37  9  1  0
 35 12  1  0
 27 20  1  0
  1 39  1  0
  1 40  1  0
  1 41  1  0
  3 42  1  0
  3 43  1  0
  4 44  1  0
  4 45  1  0
  7 46  1  0
  8 47  1  0
 13 48  1  0
 16 49  1  0
 16 50  1  0
 17 51  1  1
 18 52  1  0
 18 53  1  0
 19 54  1  0
 19 55  1  0
 21 56  1  0
 26 57  1  0
 29 58  1  0
 29 59  1  0
 30 60  1  0
 30 61  1  0
 34 62  1  0
 34 63  1  0
 35 64  1  0
 35 65  1  0
 38 66  1  0
M  END
$$$$
