
     RDKit          3D

 51 52  0  0  0  0  0  0  0  0999 V2000
    0.6878    0.0000    0.0000 Cl  0  0  0  0  0  0  0  0  0  0  0  0
   -1.6314    1.8485   -1.2254 N   0  0  0  0  0  0  0  0  0  0  0  0
   -1.5835    0.4131   -1.5272 C   0  0  1  0  0  0  0  0  0  0  0  0
   -0.1300   -0.1167   -1.5985 C   0  0  0  0  0  0  0  0  0  0  0  0
    0.6400    0.0611   -0.3111 C   0  0  0  0  0  0  0  0  0  0  0  0
    1.1227    1.1987   -0.0578 O   0  0  0  0  0  0  0  0  0  0  0  0
    0.8216   -1.0142    0.6373 N   0  0  0  0  0  0  0  0  0  0  0  0
    0.5353   -2.4088    0.3205 C   0  0  0  0  0  0  0  0  0  0  0  0
    1.0287   -3.2804    1.4661 C   0  0  0  0  0  0  0  0  0  0  0  0
    1.1181   -2.2725    2.9716 S   0  0  0  0  0  0  0  0  0  0  0  0
    1.2831   -0.7492    1.9976 C   0  0  0  0  0  0  0  0  0  0  0  0
    2.7134   -0.2867    2.0048 C   0  0  0  0  0  0  0  0  0  0  0  0
    3.0531    0.6493    2.7783 O   0  0  0  0  0  0  0  0  0  0  0  0
    3.6874   -0.8990    1.1468 N   0  0  0  0  0  0  0  0  0  0  0  0
    4.9548   -0.2495    0.8281 C   0  0  0  0  0  0  0  0  0  0  0  0
    4.7116    0.9134   -0.0825 C   0  0  0  0  0  0  0  0  0  0  0  0
    4.3287    0.8508   -1.4051 C   0  0  0  0  0  0  0  0  0  0  0  0
    4.1352    2.1604   -1.7941 C   0  0  0  0  0  0  0  0  0  0  0  0
    4.3720    2.9655   -0.7820 O   0  0  0  0  0  0  0  0  0  0  0  0
    4.7138    2.2484    0.2640 C   0  0  0  0  0  0  0  0  0  0  0  0
   -2.4430   -0.3856   -0.5266 C   0  0  0  0  0  0  0  0  0  0  0  0
   -3.8799    0.0749   -0.5395 C   0  0  0  0  0  0  0  0  0  0  0  0
   -4.3275    1.0110    0.4087 C   0  0  0  0  0  0  0  0  0  0  0  0
   -5.6508    1.4622    0.3861 C   0  0  0  0  0  0  0  0  0  0  0  0
   -6.0731    2.3632    1.3074 F   0  0  0  0  0  0  0  0  0  0  0  0
   -6.5358    0.9877   -0.5867 C   0  0  0  0  0  0  0  0  0  0  0  0
   -7.8191    1.4254   -0.6103 F   0  0  0  0  0  0  0  0  0  0  0  0
   -6.0970    0.0640   -1.5393 C   0  0  0  0  0  0  0  0  0  0  0  0
   -4.7743   -0.3906   -1.5217 C   0  0  0  0  0  0  0  0  0  0  0  0
   -4.3666   -1.2813   -2.4612 F   0  0  0  0  0  0  0  0  0  0  0  0
   -0.6878    0.0000    0.0000 H   0  0  0  0  0  0  0  0  0  0  0  0
   -1.2985    2.0200   -0.2494 H   0  0  0  0  0  0  0  0  0  0  0  0
   -0.9955    2.3603   -1.8794 H   0  0  0  0  0  0  0  0  0  0  0  0
   -2.0254    0.2672   -2.5382 H   0  0  0  0  0  0  0  0  0  0  0  0
    0.4092    0.4263   -2.4051 H   0  0  0  0  0  0  0  0  0  0  0  0
   -0.1455   -1.1796   -1.9128 H   0  0  0  0  0  0  0  0  0  0  0  0
    1.0563   -2.7057   -0.6152 H   0  0  0  0  0  0  0  0  0  0  0  0
   -0.5583   -2.5447    0.1960 H   0  0  0  0  0  0  0  0  0  0  0  0
    2.0444   -3.6686    1.2406 H   0  0  0  0  0  0  0  0  0  0  0  0
    0.3463   -4.1416    1.6267 H   0  0  0  0  0  0  0  0  0  0  0  0
    0.6319    0.0241    2.4608 H   0  0  0  0  0  0  0  0  0  0  0  0
    3.4432   -1.7745    0.6333 H   0  0  0  0  0  0  0  0  0  0  0  0
    5.6218   -0.9742    0.3138 H   0  0  0  0  0  0  0  0  0  0  0  0
    5.4630    0.0781    1.7606 H   0  0  0  0  0  0  0  0  0  0  0  0
    4.1886   -0.0376   -2.0067 H   0  0  0  0  0  0  0  0  0  0  0  0
    3.8285    2.4900   -2.7776 H   0  0  0  0  0  0  0  0  0  0  0  0
    4.9488    2.6577    1.2376 H   0  0  0  0  0  0  0  0  0  0  0  0
   -2.4100   -1.4643   -0.7909 H   0  0  0  0  0  0  0  0  0  0  0  0
   -2.0235   -0.2899    0.4990 H   0  0  0  0  0  0  0  0  0  0  0  0
   -3.6505    1.3923    1.1632 H   0  0  0  0  0  0  0  0  0  0  0  0
   -6.7824   -0.2987   -2.2946 H   0  0  0  0  0  0  0  0  0  0  0  0
  2  3  1  0
  3  4  1  0
  4  5  1  0
  5  6  2  0
  5  7  1  0
  7  8  1  0
  8  9  1  0
  9 10  1  0
 10 11  1  0
 11 12  1  0
 12 13  2  0
 12 14  1  0
 14 15  1  0
 15 16  1  0
 16 17  1  0
 17 18  2  0
 18 19  1  0
 19 20  1  0
  3 21  1  0
 21 22  1  0
 22 23  2  0
 23 24  1  0
 24 25  1  0
 24 26  2  0
 26 27  1  0
 26 28  1  0
 28 29  2  0
 29 30  1  0
 11  7  1  0
 20 16  2  0
 29 22  1  0
  1 31  1  0
  2 32  1  0
  2 33  1  0
  3 34  1  6
  4 35  1  0
  4 36  1  0
  8 37  1  0
  8 38  1  0
  9 39  1  0
  9 40  1  0
 11 41  1  0
 14 42  1  0
 15 43  1  0
 15 44  1  0
 17 45  1  0
 18 46  1  0
 20 47  1  0
 21 48  1  0
 21 49  1  0
 23 50  1  0
 28 51  1  0
M  END
$$$$
