
     RDKit          3D

 44 46  0  0  0  0  0  0  0  0999 V2000
   -3.5170   -3.4951   -0.9519 C   0  0  0  0  0  0  0  0  0  0  0  0
   -2.2156   -2.7589   -0.8475 C   0  0  0  0  0  0  0  0  0  0  0  0
   -1.0939   -3.4287   -0.4927 N   0  0  0  0  0  0  0  0  0  0  0  0
    0.0785   -2.8073   -0.4034 N   0  0  0  0  0  0  0  0  0  0  0  0
    0.1971   -1.4766   -0.6512 C   0  0  0  0  0  0  0  0  0  0  0  0
    1.5047   -0.8845   -0.6054 N   0  0  0  0  0  0  0  0  0  0  0  0
    2.1838   -0.5631   -1.8671 C   0  0  0  0  0  0  0  0  0  0  0  0
    3.0431    0.7084   -1.7345 C   0  0  0  0  0  0  0  0  0  0  0  0
    3.5771    0.9500   -0.3089 C   0  0  0  0  0  0  0  0  0  0  0  0
    3.6767   -0.3545    0.4964 C   0  0  1  0  0  0  0  0  0  0  0  0
    4.2500   -0.0900    1.8165 N   0  0  0  0  0  0  0  0  0  0  0  0
    2.2729   -0.9717    0.6447 C   0  0  0  0  0  0  0  0  0  0  0  0
   -0.9193   -0.7411   -0.9771 N   0  0  0  0  0  0  0  0  0  0  0  0
   -0.8548    0.7249   -1.1653 C   0  0  0  0  0  0  0  0  0  0  0  0
   -1.6352    1.4465   -0.0837 C   0  0  0  0  0  0  0  0  0  0  0  0
   -1.2470    1.2690    1.2560 C   0  0  0  0  0  0  0  0  0  0  0  0
   -1.9308    1.9145    2.2886 C   0  0  0  0  0  0  0  0  0  0  0  0
   -1.5460    1.7291    3.5754 F   0  0  0  0  0  0  0  0  0  0  0  0
   -3.0091    2.7501    1.9972 C   0  0  0  0  0  0  0  0  0  0  0  0
   -3.4056    2.9444    0.6729 C   0  0  0  0  0  0  0  0  0  0  0  0
   -2.7273    2.3022   -0.3731 C   0  0  0  0  0  0  0  0  0  0  0  0
   -3.1744    2.5391   -1.7248 C   0  0  0  0  0  0  0  0  0  0  0  0
   -3.5337    2.7292   -2.8083 N   0  0  0  0  0  0  0  0  0  0  0  0
   -2.1259   -1.3847   -1.1029 C   0  0  0  0  0  0  0  0  0  0  0  0
   -3.1611   -0.7470   -1.4443 O   0  0  0  0  0  0  0  0  0  0  0  0
   -3.3774   -4.5711   -0.7142 H   0  0  0  0  0  0  0  0  0  0  0  0
   -3.9163   -3.4087   -1.9843 H   0  0  0  0  0  0  0  0  0  0  0  0
   -4.2499   -3.0656   -0.2369 H   0  0  0  0  0  0  0  0  0  0  0  0
    2.8343   -1.4202   -2.1471 H   0  0  0  0  0  0  0  0  0  0  0  0
    1.4474   -0.4240   -2.6892 H   0  0  0  0  0  0  0  0  0  0  0  0
    3.8994    0.6295   -2.4395 H   0  0  0  0  0  0  0  0  0  0  0  0
    2.4463    1.5928   -2.0466 H   0  0  0  0  0  0  0  0  0  0  0  0
    4.5759    1.4345   -0.3724 H   0  0  0  0  0  0  0  0  0  0  0  0
    2.8975    1.6536    0.2224 H   0  0  0  0  0  0  0  0  0  0  0  0
    4.3347   -1.0685   -0.0512 H   0  0  0  0  0  0  0  0  0  0  0  0
    4.3327   -1.0003    2.3255 H   0  0  0  0  0  0  0  0  0  0  0  0
    5.2285    0.2563    1.6865 H   0  0  0  0  0  0  0  0  0  0  0  0
    2.3709   -2.0351    0.9538 H   0  0  0  0  0  0  0  0  0  0  0  0
    1.7194   -0.4304    1.4415 H   0  0  0  0  0  0  0  0  0  0  0  0
   -1.2167    0.9705   -2.1850 H   0  0  0  0  0  0  0  0  0  0  0  0
    0.1821    1.1090   -1.1232 H   0  0  0  0  0  0  0  0  0  0  0  0
   -0.4140    0.6247    1.5012 H   0  0  0  0  0  0  0  0  0  0  0  0
   -3.5386    3.2501    2.7980 H   0  0  0  0  0  0  0  0  0  0  0  0
   -4.2438    3.5986    0.4636 H   0  0  0  0  0  0  0  0  0  0  0  0
  1  2  1  0
  2  3  2  0
  3  4  1  0
  4  5  2  0
  5  6  1  0
  6  7  1  0
  7  8  1  0
  8  9  1  0
  9 10  1  0
 10 11  1  0
 10 12  1  0
  5 13  1  0
 13 14  1  0
 14 15  1  0
 15 16  2  0
 16 17  1  0
 17 18  1  0
 17 19  2  0
 19 20  1  0
 20 21  2  0
 21 22  1  0
 22 23  3  0
 13 24  1  0
 24 25  2  0
 24  2  1  0
 12  6  1  0
 21 15  1  0
  1 26  1  0
  1 27  1  0
  1 28  1  0
  7 29  1  0
  7 30  1  0
  8 31  1  0
  8 32  1  0
  9 33  1  0
  9 34  1  0
 10 35  1  6
 11 36  1  0
 11 37  1  0
 12 38  1  0
 12 39  1  0
 14 40  1  0
 14 41  1  0
 16 42  1  0
 19 43  1  0
 20 44  1  0
M  END
$$$$
