
     RDKit          3D

 44 46  0  0  0  0  0  0  0  0999 V2000
   -5.9363   -1.4350    2.7159 N   0  0  0  0  0  0  0  0  0  0  0  0
   -5.7872   -0.6971    1.8370 C   0  0  0  0  0  0  0  0  0  0  0  0
   -5.5964    0.2422    0.7187 C   0  0  2  0  0  0  0  0  0  0  0  0
   -6.6128   -0.0126   -0.3967 C   0  0  0  0  0  0  0  0  0  0  0  0
   -5.8254    0.1038   -1.6991 C   0  0  2  0  0  0  0  0  0  0  0  0
   -6.2740   -0.8103   -2.6379 F   0  0  0  0  0  0  0  0  0  0  0  0
   -4.3714   -0.1590   -1.3296 C   0  0  0  0  0  0  0  0  0  0  0  0
   -4.2869    0.0573    0.1066 N   0  0  0  0  0  0  0  0  0  0  0  0
   -3.0469    0.2553    0.8157 C   0  0  0  0  0  0  0  0  0  0  0  0
   -3.0701    0.7406    1.9804 O   0  0  0  0  0  0  0  0  0  0  0  0
   -1.7157   -0.0464    0.1682 C   0  0  1  0  0  0  0  0  0  0  0  0
   -1.1966    1.1779   -0.4466 N   0  0  0  0  0  0  0  0  0  0  0  0
   -0.7210   -0.6409    1.1910 C   0  0  0  0  0  0  0  0  0  0  0  0
    0.5384   -1.1134    0.5273 C   0  0  0  0  0  0  0  0  0  0  0  0
    0.6338   -2.3315   -0.1399 C   0  0  0  0  0  0  0  0  0  0  0  0
    2.1838   -2.4403   -0.7781 S   0  0  0  0  0  0  0  0  0  0  0  0
    2.6686   -0.9369   -0.1880 C   0  0  0  0  0  0  0  0  0  0  0  0
    3.9998   -0.3170   -0.3798 C   0  0  0  0  0  0  0  0  0  0  0  0
    4.2701    0.9537    0.1561 C   0  0  0  0  0  0  0  0  0  0  0  0
    5.5230    1.5477   -0.0201 C   0  0  0  0  0  0  0  0  0  0  0  0
    6.5265    0.8919   -0.7520 C   0  0  0  0  0  0  0  0  0  0  0  0
    7.8936    1.5112   -0.8993 C   0  0  0  0  0  0  0  0  0  0  0  0
    8.6840    1.1282    0.1681 F   0  0  0  0  0  0  0  0  0  0  0  0
    7.8048    2.8924   -0.9220 F   0  0  0  0  0  0  0  0  0  0  0  0
    8.4935    1.0974   -2.0762 F   0  0  0  0  0  0  0  0  0  0  0  0
    6.2666   -0.3897   -1.2646 C   0  0  0  0  0  0  0  0  0  0  0  0
    5.0138   -0.9844   -1.0888 C   0  0  0  0  0  0  0  0  0  0  0  0
    1.6609   -0.3444    0.4923 N   0  0  0  0  0  0  0  0  0  0  0  0
   -5.6889    1.2862    1.0897 H   0  0  0  0  0  0  0  0  0  0  0  0
   -7.4397    0.7300   -0.3629 H   0  0  0  0  0  0  0  0  0  0  0  0
   -7.0481   -1.0356   -0.3248 H   0  0  0  0  0  0  0  0  0  0  0  0
   -5.9290    1.1340   -2.1060 H   0  0  0  0  0  0  0  0  0  0  0  0
   -3.7057    0.5462   -1.8732 H   0  0  0  0  0  0  0  0  0  0  0  0
   -4.0875   -1.2079   -1.5635 H   0  0  0  0  0  0  0  0  0  0  0  0
   -1.8735   -0.8071   -0.6271 H   0  0  0  0  0  0  0  0  0  0  0  0
   -0.8610    1.8301    0.2997 H   0  0  0  0  0  0  0  0  0  0  0  0
   -0.3776    0.9374   -1.0505 H   0  0  0  0  0  0  0  0  0  0  0  0
   -0.4664    0.1143    1.9666 H   0  0  0  0  0  0  0  0  0  0  0  0
   -1.1946   -1.5037    1.7094 H   0  0  0  0  0  0  0  0  0  0  0  0
   -0.1503   -3.0706   -0.2376 H   0  0  0  0  0  0  0  0  0  0  0  0
    3.5144    1.4890    0.7173 H   0  0  0  0  0  0  0  0  0  0  0  0
    5.7076    2.5204    0.4183 H   0  0  0  0  0  0  0  0  0  0  0  0
    7.0339   -0.9342   -1.8007 H   0  0  0  0  0  0  0  0  0  0  0  0
    4.8459   -1.9692   -1.5047 H   0  0  0  0  0  0  0  0  0  0  0  0
  1  2  3  0
  2  3  1  0
  3  4  1  0
  4  5  1  0
  5  6  1  0
  5  7  1  0
  7  8  1  0
  8  9  1  0
  9 10  2  0
  9 11  1  0
 11 12  1  0
 11 13  1  0
 13 14  1  0
 14 15  2  0
 15 16  1  0
 16 17  1  0
 17 18  1  0
 18 19  2  0
 19 20  1  0
 20 21  2  0
 21 22  1  0
 22 23  1  0
 22 24  1  0
 22 25  1  0
 21 26  1  0
 26 27  2  0
 17 28  2  0
  8  3  1  0
 28 14  1  0
 27 18  1  0
  3 29  1  1
  4 30  1  0
  4 31  1  0
  5 32  1  6
  7 33  1  0
  7 34  1  0
 11 35  1  6
 12 36  1  0
 12 37  1  0
 13 38  1  0
 13 39  1  0
 15 40  1  0
 19 41  1  0
 20 42  1  0
 26 43  1  0
 27 44  1  0
M  END
$$$$
