
     RDKit          3D

 36 37  0  0  0  0  0  0  0  0999 V2000
    3.6421    0.1689   -4.3843 N   0  0  0  0  0  0  0  0  0  0  0  0
    3.2823   -0.0388   -3.3042 C   0  0  0  0  0  0  0  0  0  0  0  0
    2.8346   -0.2970   -1.9609 C   0  0  0  0  0  0  0  0  0  0  0  0
    2.3873   -1.5745   -1.6033 C   0  0  0  0  0  0  0  0  0  0  0  0
    1.9474   -1.8241   -0.2999 C   0  0  0  0  0  0  0  0  0  0  0  0
    1.9432   -0.7956    0.6570 C   0  0  0  0  0  0  0  0  0  0  0  0
    1.4426   -1.0556    2.0575 C   0  0  0  0  0  0  0  0  0  0  0  0
   -0.0883   -0.9267    2.1968 C   0  0  2  0  0  0  0  0  0  0  0  0
   -0.7630   -1.9878    1.4414 N   0  0  0  0  0  0  0  0  0  0  0  0
   -0.5815    0.4631    1.8397 C   0  0  0  0  0  0  0  0  0  0  0  0
   -0.1941    1.4459    2.5263 O   0  0  0  0  0  0  0  0  0  0  0  0
   -1.4904    0.6894    0.7539 N   0  0  0  0  0  0  0  0  0  0  0  0
   -2.9306    0.6303    0.9106 C   0  0  0  0  0  0  0  0  0  0  0  0
   -3.4838    0.6089   -0.5077 C   0  0  1  0  0  0  0  0  0  0  0  0
   -4.6321    1.3770   -0.6045 F   0  0  0  0  0  0  0  0  0  0  0  0
   -2.3721    1.1612   -1.4022 C   0  0  0  0  0  0  0  0  0  0  0  0
   -1.0731    1.0017   -0.6040 C   0  0  1  0  0  0  0  0  0  0  0  0
   -0.2792    2.2415   -0.6312 C   0  0  0  0  0  0  0  0  0  0  0  0
    0.3443    3.2162   -0.6522 N   0  0  0  0  0  0  0  0  0  0  0  0
    2.4008    0.4816    0.2938 C   0  0  0  0  0  0  0  0  0  0  0  0
    2.8448    0.7290   -1.0086 C   0  0  0  0  0  0  0  0  0  0  0  0
    2.3777   -2.3767   -2.3314 H   0  0  0  0  0  0  0  0  0  0  0  0
    1.6046   -2.8173   -0.0380 H   0  0  0  0  0  0  0  0  0  0  0  0
    1.9343   -0.3550    2.7682 H   0  0  0  0  0  0  0  0  0  0  0  0
    1.7489   -2.0772    2.3730 H   0  0  0  0  0  0  0  0  0  0  0  0
   -0.3215   -1.0832    3.2738 H   0  0  0  0  0  0  0  0  0  0  0  0
   -0.7590   -1.7705    0.4197 H   0  0  0  0  0  0  0  0  0  0  0  0
   -1.7586   -2.0478    1.7529 H   0  0  0  0  0  0  0  0  0  0  0  0
   -3.2370   -0.2825    1.4626 H   0  0  0  0  0  0  0  0  0  0  0  0
   -3.2773    1.5318    1.4606 H   0  0  0  0  0  0  0  0  0  0  0  0
   -3.7131   -0.4388   -0.8030 H   0  0  0  0  0  0  0  0  0  0  0  0
   -2.3205    0.5982   -2.3596 H   0  0  0  0  0  0  0  0  0  0  0  0
   -2.5846    2.2301   -1.6333 H   0  0  0  0  0  0  0  0  0  0  0  0
   -0.4685    0.1650   -1.0145 H   0  0  0  0  0  0  0  0  0  0  0  0
    2.4049    1.2884    1.0161 H   0  0  0  0  0  0  0  0  0  0  0  0
    3.1885    1.7215   -1.2743 H   0  0  0  0  0  0  0  0  0  0  0  0
  1  2  3  0
  2  3  1  0
  3  4  2  0
  4  5  1  0
  5  6  2  0
  6  7  1  0
  7  8  1  0
  8  9  1  0
  8 10  1  0
 10 11  2  0
 10 12  1  0
 12 13  1  0
 13 14  1  0
 14 15  1  0
 14 16  1  0
 16 17  1  0
 17 18  1  0
 18 19  3  0
  6 20  1  0
 20 21  2  0
 21  3  1  0
 17 12  1  0
  4 22  1  0
  5 23  1  0
  7 24  1  0
  7 25  1  0
  8 26  1  1
  9 27  1  0
  9 28  1  0
 13 29  1  0
 13 30  1  0
 14 31  1  6
 16 32  1  0
 16 33  1  0
 17 34  1  6
 20 35  1  0
 21 36  1  0
M  END
$$$$
