
     RDKit          3D

 42 44  0  0  0  0  0  0  0  0999 V2000
    6.0866   -0.6681    4.6153 N   0  0  0  0  0  0  0  0  0  0  0  0
    5.4864   -0.5400    3.6341 C   0  0  0  0  0  0  0  0  0  0  0  0
    4.7389   -0.3800    2.4117 C   0  0  0  0  0  0  0  0  0  0  0  0
    5.0033    0.7190    1.5867 C   0  0  0  0  0  0  0  0  0  0  0  0
    4.2910    0.8951    0.3980 C   0  0  0  0  0  0  0  0  0  0  0  0
    3.2990   -0.0211    0.0157 C   0  0  0  0  0  0  0  0  0  0  0  0
    2.5837    0.1934   -1.2174 N   0  0  0  0  0  0  0  0  0  0  0  0
    1.3775   -0.5494   -1.6084 C   0  0  2  0  0  0  0  0  0  0  0  0
    0.8887   -0.1663   -2.9989 C   0  0  0  0  0  0  0  0  0  0  0  0
   -0.5613   -0.3616   -3.0256 N   0  0  0  0  0  0  0  0  0  0  0  0
   -1.0147   -0.4397   -1.6289 C   0  0  2  0  0  0  0  0  0  0  0  0
   -2.0923    0.5847   -1.3662 C   0  0  0  0  0  0  0  0  0  0  0  0
   -2.1151    1.6418   -2.0549 O   0  0  0  0  0  0  0  0  0  0  0  0
   -3.0483    0.4124   -0.3011 N   0  0  0  0  0  0  0  0  0  0  0  0
   -3.1564   -0.7872    0.5153 C   0  0  0  0  0  0  0  0  0  0  0  0
   -4.2446   -0.4929    1.5395 C   0  0  0  0  0  0  0  0  0  0  0  0
   -5.0227    0.6968    0.9850 C   0  0  0  0  0  0  0  0  0  0  0  0
   -4.0681    1.4004    0.0206 C   0  0  1  0  0  0  0  0  0  0  0  0
   -3.4457    2.5755    0.6525 C   0  0  0  0  0  0  0  0  0  0  0  0
   -2.9554    3.4988    1.1489 N   0  0  0  0  0  0  0  0  0  0  0  0
    0.1959   -0.2110   -0.7257 C   0  0  0  0  0  0  0  0  0  0  0  0
    3.0426   -1.1311    0.8441 C   0  0  0  0  0  0  0  0  0  0  0  0
    3.7542   -1.3105    2.0367 C   0  0  0  0  0  0  0  0  0  0  0  0
    3.3912   -2.7134    3.0373 Cl  0  0  0  0  0  0  0  0  0  0  0  0
    5.7614    1.4423    1.8626 H   0  0  0  0  0  0  0  0  0  0  0  0
    4.5094    1.7535   -0.2249 H   0  0  0  0  0  0  0  0  0  0  0  0
    2.9469    0.9328   -1.8618 H   0  0  0  0  0  0  0  0  0  0  0  0
    1.5741   -1.6444   -1.5937 H   0  0  0  0  0  0  0  0  0  0  0  0
    1.3929   -0.7810   -3.7779 H   0  0  0  0  0  0  0  0  0  0  0  0
    1.0940    0.9057   -3.2110 H   0  0  0  0  0  0  0  0  0  0  0  0
   -0.7620   -1.2763   -3.4958 H   0  0  0  0  0  0  0  0  0  0  0  0
   -1.4175   -1.4596   -1.4341 H   0  0  0  0  0  0  0  0  0  0  0  0
   -2.1931   -1.0017    1.0252 H   0  0  0  0  0  0  0  0  0  0  0  0
   -3.4528   -1.6482   -0.1222 H   0  0  0  0  0  0  0  0  0  0  0  0
   -4.9055   -1.3730    1.6957 H   0  0  0  0  0  0  0  0  0  0  0  0
   -3.7778   -0.2090    2.5085 H   0  0  0  0  0  0  0  0  0  0  0  0
   -5.3900    1.3578    1.8018 H   0  0  0  0  0  0  0  0  0  0  0  0
   -5.9019    0.3200    0.4171 H   0  0  0  0  0  0  0  0  0  0  0  0
   -4.6107    1.7136   -0.8980 H   0  0  0  0  0  0  0  0  0  0  0  0
    0.2598    0.8535   -0.4020 H   0  0  0  0  0  0  0  0  0  0  0  0
    0.1567   -0.8632    0.1726 H   0  0  0  0  0  0  0  0  0  0  0  0
    2.3018   -1.8686    0.5717 H   0  0  0  0  0  0  0  0  0  0  0  0
  1  2  3  0
  2  3  1  0
  3  4  2  0
  4  5  1  0
  5  6  2  0
  6  7  1  0
  7  8  1  0
  8  9  1  0
  9 10  1  0
 10 11  1  0
 11 12  1  0
 12 13  2  0
 12 14  1  0
 14 15  1  0
 15 16  1  0
 16 17  1  0
 17 18  1  0
 18 19  1  0
 19 20  3  0
 11 21  1  0
  6 22  1  0
 22 23  2  0
 23 24  1  0
 23  3  1  0
 21  8  1  0
 18 14  1  0
  4 25  1  0
  5 26  1  0
  7 27  1  0
  8 28  1  6
  9 29  1  0
  9 30  1  0
 10 31  1  0
 11 32  1  1
 15 33  1  0
 15 34  1  0
 16 35  1  0
 16 36  1  0
 17 37  1  0
 17 38  1  0
 18 39  1  6
 21 40  1  0
 21 41  1  0
 22 42  1  0
M  END
$$$$
