
     RDKit          3D

 53 54  0  0  0  0  0  0  0  0999 V2000
    7.2504   -1.5998    0.0836 C   0  0  0  0  0  0  0  0  0  0  0  0
    6.0361   -2.8117   -0.3927 S   0  0  0  0  0  0  0  0  0  0  0  0
    6.5632   -3.5891   -1.5656 O   0  0  0  0  0  0  0  0  0  0  0  0
    5.7907   -3.7559    0.7515 O   0  0  0  0  0  0  0  0  0  0  0  0
    4.5563   -2.0255   -0.8539 N   0  0  0  0  0  0  0  0  0  0  0  0
    3.8751   -1.5007    0.3324 C   0  0  0  0  0  0  0  0  0  0  0  0
    2.6675   -0.6528   -0.0735 C   0  0  0  0  0  0  0  0  0  0  0  0
    3.1636    0.8944   -0.8285 S   0  0  0  0  0  0  0  0  0  0  0  0
    3.8018    1.7716    0.2127 O   0  0  0  0  0  0  0  0  0  0  0  0
    4.1658    0.6242   -1.9154 O   0  0  0  0  0  0  0  0  0  0  0  0
    1.8024    1.7221   -1.5317 N   0  0  0  0  0  0  0  0  0  0  0  0
    0.7535    1.9804   -0.5285 C   0  0  1  0  0  0  0  0  0  0  0  0
    0.0037    3.2778   -0.8159 C   0  0  0  0  0  0  0  0  0  0  0  0
   -1.3571    3.1067   -0.1627 C   0  0  0  0  0  0  0  0  0  0  0  0
   -1.6422    1.5959   -0.1569 C   0  0  2  0  0  0  0  0  0  0  0  0
   -2.2147    1.1150    1.2054 C   0  0  2  0  0  0  0  0  0  0  0  0
   -1.2615    1.3334    2.3018 N   0  0  0  0  0  0  0  0  0  0  0  0
   -2.6672   -0.3328    1.1363 C   0  0  0  0  0  0  0  0  0  0  0  0
   -1.8509   -1.2508    1.4246 O   0  0  0  0  0  0  0  0  0  0  0  0
   -3.9949   -0.6863    0.7029 N   0  0  0  0  0  0  0  0  0  0  0  0
   -4.4307   -2.0654    0.5641 C   0  0  0  0  0  0  0  0  0  0  0  0
   -5.9227   -1.9997    0.2672 C   0  0  0  0  0  0  0  0  0  0  0  0
   -6.1997   -0.5626   -0.1645 C   0  0  0  0  0  0  0  0  0  0  0  0
   -5.0452    0.2666    0.3815 C   0  0  0  0  0  0  0  0  0  0  0  0
   -0.3312    0.9079   -0.5813 C   0  0  0  0  0  0  0  0  0  0  0  0
    8.2376   -2.0919    0.2036 H   0  0  0  0  0  0  0  0  0  0  0  0
    7.3214   -0.8188   -0.7013 H   0  0  0  0  0  0  0  0  0  0  0  0
    6.9603   -1.1306    1.0457 H   0  0  0  0  0  0  0  0  0  0  0  0
    3.9445   -2.7581   -1.2825 H   0  0  0  0  0  0  0  0  0  0  0  0
    4.5655   -0.8741    0.9371 H   0  0  0  0  0  0  0  0  0  0  0  0
    3.5207   -2.3423    0.9688 H   0  0  0  0  0  0  0  0  0  0  0  0
    2.0799   -0.4242    0.8400 H   0  0  0  0  0  0  0  0  0  0  0  0
    2.0211   -1.2185   -0.7777 H   0  0  0  0  0  0  0  0  0  0  0  0
    2.1829    2.6326   -1.8798 H   0  0  0  0  0  0  0  0  0  0  0  0
    1.1692    2.0426    0.5039 H   0  0  0  0  0  0  0  0  0  0  0  0
   -0.1327    3.4106   -1.9130 H   0  0  0  0  0  0  0  0  0  0  0  0
    0.5446    4.1573   -0.4038 H   0  0  0  0  0  0  0  0  0  0  0  0
   -1.3154    3.5221    0.8682 H   0  0  0  0  0  0  0  0  0  0  0  0
   -2.1377    3.6603   -0.7291 H   0  0  0  0  0  0  0  0  0  0  0  0
   -2.4043    1.3915   -0.9424 H   0  0  0  0  0  0  0  0  0  0  0  0
   -3.1046    1.7434    1.4245 H   0  0  0  0  0  0  0  0  0  0  0  0
   -1.7350    1.1002    3.2051 H   0  0  0  0  0  0  0  0  0  0  0  0
   -0.4397    0.6945    2.2115 H   0  0  0  0  0  0  0  0  0  0  0  0
   -3.8854   -2.5448   -0.2777 H   0  0  0  0  0  0  0  0  0  0  0  0
   -4.2457   -2.6287    1.5047 H   0  0  0  0  0  0  0  0  0  0  0  0
   -6.4975   -2.2254    1.1924 H   0  0  0  0  0  0  0  0  0  0  0  0
   -6.2102   -2.7230   -0.5265 H   0  0  0  0  0  0  0  0  0  0  0  0
   -6.2075   -0.5054   -1.2754 H   0  0  0  0  0  0  0  0  0  0  0  0
   -7.1768   -0.2039    0.2259 H   0  0  0  0  0  0  0  0  0  0  0  0
   -5.3575    0.8028    1.3037 H   0  0  0  0  0  0  0  0  0  0  0  0
   -4.6994    0.9931   -0.3839 H   0  0  0  0  0  0  0  0  0  0  0  0
   -0.0717    0.0387    0.0517 H   0  0  0  0  0  0  0  0  0  0  0  0
   -0.4390    0.5372   -1.6256 H   0  0  0  0  0  0  0  0  0  0  0  0
  1  2  1  0
  2  3  2  0
  2  4  2  0
  2  5  1  0
  5  6  1  0
  6  7  1  0
  7  8  1  0
  8  9  2  0
  8 10  2  0
  8 11  1  0
 11 12  1  0
 12 13  1  0
 13 14  1  0
 14 15  1  0
 15 16  1  0
 16 17  1  0
 16 18  1  0
 18 19  2  0
 18 20  1  0
 20 21  1  0
 21 22  1  0
 22 23  1  0
 23 24  1  0
 15 25  1  0
 25 12  1  0
 24 20  1  0
  1 26  1  0
  1 27  1  0
  1 28  1  0
  5 29  1  0
  6 30  1  0
  6 31  1  0
  7 32  1  0
  7 33  1  0
 11 34  1  0
 12 35  1  1
 13 36  1  0
 13 37  1  0
 14 38  1  0
 14 39  1  0
 15 40  1  6
 16 41  1  1
 17 42  1  0
 17 43  1  0
 21 44  1  0
 21 45  1  0
 22 46  1  0
 22 47  1  0
 23 48  1  0
 23 49  1  0
 24 50  1  0
 24 51  1  0
 25 52  1  0
 25 53  1  0
M  END
$$$$
