
     RDKit          3D

 36 37  0  0  0  0  0  0  0  0999 V2000
    0.8645   -2.4397    1.2126 N   0  0  0  0  0  0  0  0  0  0  0  0
    0.1860   -1.2684    0.6445 C   0  0  2  0  0  0  0  0  0  0  0  0
   -1.2507   -1.6795    0.2182 C   0  0  0  0  0  0  0  0  0  0  0  0
   -2.1450   -0.5075   -0.0993 C   0  0  0  0  0  0  0  0  0  0  0  0
   -2.6039    0.3202    0.9400 C   0  0  0  0  0  0  0  0  0  0  0  0
   -3.4192    1.4208    0.6601 C   0  0  0  0  0  0  0  0  0  0  0  0
   -3.8522    2.2150    1.6704 F   0  0  0  0  0  0  0  0  0  0  0  0
   -3.7862    1.7026   -0.6589 C   0  0  0  0  0  0  0  0  0  0  0  0
   -4.5757    2.7708   -0.9318 F   0  0  0  0  0  0  0  0  0  0  0  0
   -3.3387    0.8833   -1.6988 C   0  0  0  0  0  0  0  0  0  0  0  0
   -2.5223   -0.2191   -1.4258 C   0  0  0  0  0  0  0  0  0  0  0  0
   -2.0897   -0.9904   -2.4552 F   0  0  0  0  0  0  0  0  0  0  0  0
    1.0199   -0.6531   -0.5397 C   0  0  0  0  0  0  0  0  0  0  0  0
    2.5422   -0.9420   -0.4673 C   0  0  0  0  0  0  0  0  0  0  0  0
    3.2195   -0.1640    0.6678 C   0  0  0  0  0  0  0  0  0  0  0  0
    3.0169    1.3426    0.4839 C   0  0  0  0  0  0  0  0  0  0  0  0
    1.5282    1.6934    0.3994 C   0  0  0  0  0  0  0  0  0  0  0  0
    0.8176    0.8789   -0.6951 C   0  0  0  0  0  0  0  0  0  0  0  0
    0.8003   -3.2401    0.5412 H   0  0  0  0  0  0  0  0  0  0  0  0
    0.3753   -2.7259    2.0920 H   0  0  0  0  0  0  0  0  0  0  0  0
    0.1022   -0.5197    1.4599 H   0  0  0  0  0  0  0  0  0  0  0  0
   -1.7270   -2.2467    1.0479 H   0  0  0  0  0  0  0  0  0  0  0  0
   -1.1996   -2.3845   -0.6395 H   0  0  0  0  0  0  0  0  0  0  0  0
   -2.3255    0.1136    1.9661 H   0  0  0  0  0  0  0  0  0  0  0  0
   -3.6225    1.1048   -2.7197 H   0  0  0  0  0  0  0  0  0  0  0  0
    0.6662   -1.1275   -1.4820 H   0  0  0  0  0  0  0  0  0  0  0  0
    3.0116   -0.6443   -1.4315 H   0  0  0  0  0  0  0  0  0  0  0  0
    2.7455   -2.0275   -0.3565 H   0  0  0  0  0  0  0  0  0  0  0  0
    2.8091   -0.4826    1.6503 H   0  0  0  0  0  0  0  0  0  0  0  0
    4.3080   -0.3876    0.6650 H   0  0  0  0  0  0  0  0  0  0  0  0
    3.4733    1.8822    1.3415 H   0  0  0  0  0  0  0  0  0  0  0  0
    3.5315    1.6779   -0.4436 H   0  0  0  0  0  0  0  0  0  0  0  0
    1.4261    2.7754    0.1672 H   0  0  0  0  0  0  0  0  0  0  0  0
    1.0471    1.5244    1.3855 H   0  0  0  0  0  0  0  0  0  0  0  0
   -0.2529    1.1514   -0.6978 H   0  0  0  0  0  0  0  0  0  0  0  0
    1.2200    1.1925   -1.6837 H   0  0  0  0  0  0  0  0  0  0  0  0
  1  2  1  0
  2  3  1  0
  3  4  1  0
  4  5  2  0
  5  6  1  0
  6  7  1  0
  6  8  2  0
  8  9  1  0
  8 10  1  0
 10 11  2  0
 11 12  1  0
  2 13  1  0
 13 14  1  0
 14 15  1  0
 15 16  1  0
 16 17  1  0
 17 18  1  0
 11  4  1  0
 18 13  1  0
  1 19  1  0
  1 20  1  0
  2 21  1  1
  3 22  1  0
  3 23  1  0
  5 24  1  0
 10 25  1  0
 13 26  1  0
 14 27  1  0
 14 28  1  0
 15 29  1  0
 15 30  1  0
 16 31  1  0
 16 32  1  0
 17 33  1  0
 17 34  1  0
 18 35  1  0
 18 36  1  0
M  END
$$$$
