
     RDKit          3D

 25 27  0  0  0  0  0  0  0  0999 V2000
   -6.5624    1.7473   -0.5016 O   0  0  0  0  0  0  0  0  0  0  0  0
   -5.3923    2.0788   -0.1753 C   0  0  0  0  0  0  0  0  0  0  0  0
   -4.2809    1.1347   -0.3183 C   0  0  0  0  0  0  0  0  0  0  0  0
   -4.3629   -0.1665   -0.8009 C   0  0  0  0  0  0  0  0  0  0  0  0
   -3.1284   -0.8269   -0.8200 C   0  0  0  0  0  0  0  0  0  0  0  0
   -2.0758   -0.0436   -0.3519 C   0  0  0  0  0  0  0  0  0  0  0  0
   -0.6649   -0.4507   -0.2487 C   0  0  0  0  0  0  0  0  0  0  0  0
   -0.1352   -1.6893   -0.6005 C   0  0  0  0  0  0  0  0  0  0  0  0
    1.2459   -1.7835   -0.3900 C   0  0  0  0  0  0  0  0  0  0  0  0
    1.8066   -0.6203    0.1277 C   0  0  0  0  0  0  0  0  0  0  0  0
    3.2267   -0.4161    0.4524 C   0  0  0  0  0  0  0  0  0  0  0  0
    3.7886    0.7458    0.9699 C   0  0  0  0  0  0  0  0  0  0  0  0
    5.1697    0.6468    1.1786 C   0  0  0  0  0  0  0  0  0  0  0  0
    5.7006   -0.5877    0.8285 C   0  0  0  0  0  0  0  0  0  0  0  0
    4.4499   -1.5561    0.2588 S   0  0  0  0  0  0  0  0  0  0  0  0
    0.5853    0.5219    0.3224 S   0  0  0  0  0  0  0  0  0  0  0  0
   -2.6832    1.4663    0.0837 S   0  0  0  0  0  0  0  0  0  0  0  0
   -5.2086    3.0713    0.2142 H   0  0  0  0  0  0  0  0  0  0  0  0
   -5.2847   -0.6283   -1.1301 H   0  0  0  0  0  0  0  0  0  0  0  0
   -3.0164   -1.8453   -1.1665 H   0  0  0  0  0  0  0  0  0  0  0  0
   -0.7218   -2.5063   -0.9982 H   0  0  0  0  0  0  0  0  0  0  0  0
    1.8138   -2.6776   -0.6112 H   0  0  0  0  0  0  0  0  0  0  0  0
    3.2229    1.6411    1.1918 H   0  0  0  0  0  0  0  0  0  0  0  0
    5.7675    1.4563    1.5756 H   0  0  0  0  0  0  0  0  0  0  0  0
    6.7403   -0.8742    0.9094 H   0  0  0  0  0  0  0  0  0  0  0  0
  1  2  2  0
  2  3  1  0
  3  4  2  0
  4  5  1  0
  5  6  2  0
  6  7  1  0
  7  8  2  0
  8  9  1  0
  9 10  2  0
 10 11  1  0
 11 12  2  0
 12 13  1  0
 13 14  2  0
 14 15  1  0
 10 16  1  0
  6 17  1  0
 17  3  1  0
 16  7  1  0
 15 11  1  0
  2 18  1  0
  4 19  1  0
  5 20  1  0
  8 21  1  0
  9 22  1  0
 12 23  1  0
 13 24  1  0
 14 25  1  0
M  END
$$$$
