
     RDKit          3D

 83 88  0  0  0  0  0  0  0  0999 V2000
   -4.2357    4.0799    1.5378 C   0  0  0  0  0  0  0  0  0  0  0  0
   -4.4291    2.6443    1.7393 C   0  0  0  0  0  0  0  0  0  0  0  0
   -4.5871    1.4608    1.9026 C   0  0  0  0  0  0  0  0  0  0  0  0
   -4.7763    0.0197    2.0941 C   0  0  0  0  0  0  0  0  0  0  0  0
   -4.4601   -0.6976    0.8568 N   0  0  0  0  0  0  0  0  0  0  0  0
   -5.3264   -1.2743   -0.0195 C   0  0  0  0  0  0  0  0  0  0  0  0
   -6.7534   -1.2266    0.1213 N   0  0  0  0  0  0  0  0  0  0  0  0
   -7.4442    0.0583   -0.0277 C   0  0  0  0  0  0  0  0  0  0  0  0
   -8.6980    0.0865    0.8488 C   0  0  0  0  0  0  0  0  0  0  0  0
   -9.5785   -1.1385    0.5766 C   0  0  0  0  0  0  0  0  0  0  0  0
   -8.7891   -2.4424    0.7927 C   0  0  1  0  0  0  0  0  0  0  0  0
   -9.6315   -3.5953    0.4729 N   0  0  0  0  0  0  0  0  0  0  0  0
   -7.5280   -2.4536   -0.0882 C   0  0  0  0  0  0  0  0  0  0  0  0
   -4.7172   -1.9263   -1.0435 N   0  0  0  0  0  0  0  0  0  0  0  0
   -3.4108   -1.7232   -0.7839 C   0  0  0  0  0  0  0  0  0  0  0  0
   -3.2492   -0.9908    0.3441 C   0  0  0  0  0  0  0  0  0  0  0  0
   -1.9737   -0.6537    0.7835 C   0  0  0  0  0  0  0  0  0  0  0  0
   -1.8161    0.0405    1.8249 O   0  0  0  0  0  0  0  0  0  0  0  0
   -0.8932   -1.0843    0.0461 N   0  0  0  0  0  0  0  0  0  0  0  0
    0.4726   -0.7080    0.4610 C   0  0  0  0  0  0  0  0  0  0  0  0
    0.8633    0.6380   -0.1595 C   0  0  0  0  0  0  0  0  0  0  0  0
    2.2805    1.0502    0.2519 C   0  0  0  0  0  0  0  0  0  0  0  0
    2.6093    2.3760   -0.3199 N   0  0  0  0  0  0  0  0  0  0  0  0
    3.4436    3.2041    0.5765 C   0  0  0  0  0  0  0  0  0  0  0  0
    4.8925    2.7036    0.6414 C   0  0  0  0  0  0  0  0  0  0  0  0
    5.5067    2.6830   -0.7636 C   0  0  0  0  0  0  0  0  0  0  0  0
    6.9072    2.1448   -0.7144 C   0  0  0  0  0  0  0  0  0  0  0  0
    7.9888    2.8465   -1.1137 N   0  0  0  0  0  0  0  0  0  0  0  0
    9.0110    1.9960   -0.9010 C   0  0  0  0  0  0  0  0  0  0  0  0
    8.5126    0.8156   -0.3833 C   0  0  0  0  0  0  0  0  0  0  0  0
    9.2628   -0.4002    0.0030 C   0  0  0  0  0  0  0  0  0  0  0  0
   10.6626   -0.4736   -0.1302 C   0  0  0  0  0  0  0  0  0  0  0  0
   11.3477   -1.6346    0.2422 C   0  0  0  0  0  0  0  0  0  0  0  0
   10.6468   -2.7309    0.7495 C   0  0  0  0  0  0  0  0  0  0  0  0
    9.2583   -2.6688    0.8858 C   0  0  0  0  0  0  0  0  0  0  0  0
    8.5682   -1.5107    0.5151 C   0  0  0  0  0  0  0  0  0  0  0  0
    7.2126    0.9422   -0.2817 O   0  0  0  0  0  0  0  0  0  0  0  0
    4.6432    1.8400   -1.7117 C   0  0  0  0  0  0  0  0  0  0  0  0
    3.1749    2.3055   -1.6877 C   0  0  0  0  0  0  0  0  0  0  0  0
   -1.0888   -1.8130   -1.1165 C   0  0  0  0  0  0  0  0  0  0  0  0
   -0.0944   -2.1570   -1.8163 O   0  0  0  0  0  0  0  0  0  0  0  0
   -2.3577   -2.1618   -1.5250 N   0  0  0  0  0  0  0  0  0  0  0  0
   -2.5761   -2.9125   -2.7688 C   0  0  0  0  0  0  0  0  0  0  0  0
   -3.2190    4.2626    1.1332 H   0  0  0  0  0  0  0  0  0  0  0  0
   -4.9927    4.4576    0.8201 H   0  0  0  0  0  0  0  0  0  0  0  0
   -4.3487    4.6080    2.5069 H   0  0  0  0  0  0  0  0  0  0  0  0
   -4.1221   -0.3351    2.9173 H   0  0  0  0  0  0  0  0  0  0  0  0
   -5.8259   -0.1719    2.3992 H   0  0  0  0  0  0  0  0  0  0  0  0
   -6.7831    0.9025    0.2582 H   0  0  0  0  0  0  0  0  0  0  0  0
   -7.7291    0.1990   -1.0932 H   0  0  0  0  0  0  0  0  0  0  0  0
   -9.2754    1.0123    0.6384 H   0  0  0  0  0  0  0  0  0  0  0  0
   -8.4005    0.1007    1.9202 H   0  0  0  0  0  0  0  0  0  0  0  0
  -10.4518   -1.1128    1.2640 H   0  0  0  0  0  0  0  0  0  0  0  0
   -9.9616   -1.0961   -0.4673 H   0  0  0  0  0  0  0  0  0  0  0  0
   -8.4779   -2.5011    1.8615 H   0  0  0  0  0  0  0  0  0  0  0  0
  -10.4467   -3.5987    1.1287 H   0  0  0  0  0  0  0  0  0  0  0  0
   -9.0910   -4.4659    0.6834 H   0  0  0  0  0  0  0  0  0  0  0  0
   -6.9133   -3.3431    0.1751 H   0  0  0  0  0  0  0  0  0  0  0  0
   -7.8106   -2.5304   -1.1614 H   0  0  0  0  0  0  0  0  0  0  0  0
    0.5406   -0.6470    1.5698 H   0  0  0  0  0  0  0  0  0  0  0  0
    1.2036   -1.4896    0.1578 H   0  0  0  0  0  0  0  0  0  0  0  0
    0.1457    1.4188    0.1747 H   0  0  0  0  0  0  0  0  0  0  0  0
    0.7989    0.5572   -1.2650 H   0  0  0  0  0  0  0  0  0  0  0  0
    3.0050    0.2725   -0.0689 H   0  0  0  0  0  0  0  0  0  0  0  0
    2.3117    1.0802    1.3644 H   0  0  0  0  0  0  0  0  0  0  0  0
    3.0099    3.2298    1.6001 H   0  0  0  0  0  0  0  0  0  0  0  0
    3.4354    4.2552    0.2124 H   0  0  0  0  0  0  0  0  0  0  0  0
    4.9161    1.6868    1.0921 H   0  0  0  0  0  0  0  0  0  0  0  0
    5.4813    3.3832    1.2957 H   0  0  0  0  0  0  0  0  0  0  0  0
    5.5427    3.7265   -1.1509 H   0  0  0  0  0  0  0  0  0  0  0  0
   10.0439    2.2335   -1.1136 H   0  0  0  0  0  0  0  0  0  0  0  0
   11.2318    0.3589   -0.5197 H   0  0  0  0  0  0  0  0  0  0  0  0
   12.4239   -1.6841    0.1371 H   0  0  0  0  0  0  0  0  0  0  0  0
   11.1794   -3.6282    1.0370 H   0  0  0  0  0  0  0  0  0  0  0  0
    8.7158   -3.5189    1.2791 H   0  0  0  0  0  0  0  0  0  0  0  0
    7.4914   -1.4836    0.6289 H   0  0  0  0  0  0  0  0  0  0  0  0
    4.7071    0.7648   -1.4403 H   0  0  0  0  0  0  0  0  0  0  0  0
    5.0322    1.9399   -2.7487 H   0  0  0  0  0  0  0  0  0  0  0  0
    2.5691    1.6284   -2.3265 H   0  0  0  0  0  0  0  0  0  0  0  0
    3.1107    3.3134   -2.1534 H   0  0  0  0  0  0  0  0  0  0  0  0
   -3.5524   -3.4424   -2.7550 H   0  0  0  0  0  0  0  0  0  0  0  0
   -2.5550   -2.2150   -3.6324 H   0  0  0  0  0  0  0  0  0  0  0  0
   -1.7899   -3.6859   -2.9032 H   0  0  0  0  0  0  0  0  0  0  0  0
  1  2  1  0
  2  3  3  0
  3  4  1  0
  4  5  1  0
  5  6  1  0
  6  7  1  0
  7  8  1  0
  8  9  1  0
  9 10  1  0
 10 11  1  0
 11 12  1  0
 11 13  1  0
  6 14  2  0
 14 15  1  0
 15 16  2  0
 16 17  1  0
 17 18  2  0
 17 19  1  0
 19 20  1  0
 20 21  1  0
 21 22  1  0
 22 23  1  0
 23 24  1  0
 24 25  1  0
 25 26  1  0
 26 27  1  0
 27 28  2  0
 28 29  1  0
 29 30  2  0
 30 31  1  0
 31 32  2  0
 32 33  1  0
 33 34  2  0
 34 35  1  0
 35 36  2  0
 30 37  1  0
 26 38  1  0
 38 39  1  0
 19 40  1  0
 40 41  2  0
 40 42  1  0
 42 43  1  0
 16  5  1  0
 39 23  1  0
 13  7  1  0
 42 15  1  0
 37 27  1  0
 36 31  1  0
  1 44  1  0
  1 45  1  0
  1 46  1  0
  4 47  1  0
  4 48  1  0
  8 49  1  0
  8 50  1  0
  9 51  1  0
  9 52  1  0
 10 53  1  0
 10 54  1  0
 11 55  1  1
 12 56  1  0
 12 57  1  0
 13 58  1  0
 13 59  1  0
 20 60  1  0
 20 61  1  0
 21 62  1  0
 21 63  1  0
 22 64  1  0
 22 65  1  0
 24 66  1  0
 24 67  1  0
 25 68  1  0
 25 69  1  0
 26 70  1  0
 29 71  1  0
 32 72  1  0
 33 73  1  0
 34 74  1  0
 35 75  1  0
 36 76  1  0
 38 77  1  0
 38 78  1  0
 39 79  1  0
 39 80  1  0
 43 81  1  0
 43 82  1  0
 43 83  1  0
M  END
$$$$
