
     RDKit          3D

 46 49  0  0  0  0  0  0  0  0999 V2000
   -3.8951    2.9703   -0.9598 N   0  0  0  0  0  0  0  0  0  0  0  0
   -4.1962    1.8546   -1.0214 C   0  0  0  0  0  0  0  0  0  0  0  0
   -4.5791    0.4345   -1.0998 C   0  0  2  0  0  0  0  0  0  0  0  0
   -5.9646    0.2771   -1.7328 C   0  0  0  0  0  0  0  0  0  0  0  0
   -6.6843   -0.7716   -0.8891 C   0  0  2  0  0  0  0  0  0  0  0  0
   -8.0285   -0.4670   -0.7525 F   0  0  0  0  0  0  0  0  0  0  0  0
   -5.9829   -0.7700    0.4624 C   0  0  0  0  0  0  0  0  0  0  0  0
   -4.6874   -0.1518    0.2319 N   0  0  0  0  0  0  0  0  0  0  0  0
   -3.6183   -0.2366    1.1964 C   0  0  0  0  0  0  0  0  0  0  0  0
   -3.8724   -0.6420    2.3640 O   0  0  0  0  0  0  0  0  0  0  0  0
   -2.2159    0.1976    0.8549 C   0  0  0  0  0  0  0  0  0  0  0  0
   -1.2393   -0.4514    1.7366 N   0  0  0  0  0  0  0  0  0  0  0  0
    0.1116   -0.1426    1.2729 C   0  0  1  0  0  0  0  0  0  0  0  0
    1.1436   -1.1426    1.7755 C   0  0  2  0  0  0  0  0  0  0  0  0
    2.5898   -0.6687    1.7653 C   0  0  0  0  0  0  0  0  0  0  0  0
    2.9358   -0.4417    0.3707 N   0  0  0  0  0  0  0  0  0  0  0  0
    4.2346    0.0275   -0.0401 C   0  0  0  0  0  0  0  0  0  0  0  0
    4.5442    0.2324   -1.3947 C   0  0  0  0  0  0  0  0  0  0  0  0
    5.8144    0.6885   -1.7508 C   0  0  0  0  0  0  0  0  0  0  0  0
    6.7784    0.9416   -0.7638 C   0  0  0  0  0  0  0  0  0  0  0  0
    8.0904    1.4119   -1.1217 N   0  0  0  0  0  0  0  0  0  0  0  0
    8.9480    1.6367   -0.2425 O   0  0  0  0  0  0  0  0  0  0  0  0
    8.4217    1.6221   -2.4408 O   0  0  0  0  0  0  0  0  0  0  0  0
    6.4294    0.7240    0.5791 C   0  0  0  0  0  0  0  0  0  0  0  0
    5.1861    0.2796    0.9013 N   0  0  0  0  0  0  0  0  0  0  0  0
    1.8417   -0.7427   -0.5410 C   0  0  0  0  0  0  0  0  0  0  0  0
    0.6768   -1.1930    0.3272 C   0  0  2  0  0  0  0  0  0  0  0  0
   -3.8272   -0.1255   -1.6965 H   0  0  0  0  0  0  0  0  0  0  0  0
   -6.5407    1.2301   -1.6974 H   0  0  0  0  0  0  0  0  0  0  0  0
   -5.8859   -0.0506   -2.7925 H   0  0  0  0  0  0  0  0  0  0  0  0
   -6.5775   -1.7708   -1.3662 H   0  0  0  0  0  0  0  0  0  0  0  0
   -5.8591   -1.8115    0.8319 H   0  0  0  0  0  0  0  0  0  0  0  0
   -6.5506   -0.1707    1.2070 H   0  0  0  0  0  0  0  0  0  0  0  0
   -2.0020   -0.0800   -0.2000 H   0  0  0  0  0  0  0  0  0  0  0  0
   -2.1476    1.3037    0.9557 H   0  0  0  0  0  0  0  0  0  0  0  0
   -1.3317   -0.0298    2.6905 H   0  0  0  0  0  0  0  0  0  0  0  0
    0.4285    0.9200    1.1704 H   0  0  0  0  0  0  0  0  0  0  0  0
    0.8138   -2.0107    2.3861 H   0  0  0  0  0  0  0  0  0  0  0  0
    2.6922    0.2715    2.3488 H   0  0  0  0  0  0  0  0  0  0  0  0
    3.2458   -1.4558    2.1941 H   0  0  0  0  0  0  0  0  0  0  0  0
    3.8173    0.0438   -2.1730 H   0  0  0  0  0  0  0  0  0  0  0  0
    6.0414    0.8428   -2.7978 H   0  0  0  0  0  0  0  0  0  0  0  0
    7.1421    0.9064    1.3722 H   0  0  0  0  0  0  0  0  0  0  0  0
    1.5592    0.1613   -1.1223 H   0  0  0  0  0  0  0  0  0  0  0  0
    2.1353   -1.5655   -1.2268 H   0  0  0  0  0  0  0  0  0  0  0  0
    0.0642   -2.0856    0.0759 H   0  0  0  0  0  0  0  0  0  0  0  0
  1  2  3  0
  2  3  1  0
  3  4  1  0
  4  5  1  0
  5  6  1  0
  5  7  1  0
  7  8  1  0
  8  9  1  0
  9 10  2  0
  9 11  1  0
 11 12  1  0
 12 13  1  0
 13 14  1  0
 14 15  1  0
 15 16  1  0
 16 17  1  0
 17 18  2  0
 18 19  1  0
 19 20  2  0
 20 21  1  0
 21 22  2  0
 21 23  1  0
 20 24  1  0
 24 25  2  0
 16 26  1  0
 26 27  1  0
  8  3  1  0
 27 13  1  0
 27 14  1  0
 25 17  1  0
  3 28  1  6
  4 29  1  0
  4 30  1  0
  5 31  1  6
  7 32  1  0
  7 33  1  0
 11 34  1  0
 11 35  1  0
 12 36  1  0
 13 37  1  6
 14 38  1  1
 15 39  1  0
 15 40  1  0
 18 41  1  0
 19 42  1  0
 24 43  1  0
 26 44  1  0
 26 45  1  0
 27 46  1  6
M  CHG  2  21   1  23  -1
M  END
$$$$
