
     RDKit          3D

 38 39  0  0  0  0  0  0  0  0999 V2000
   -4.4147   -1.5301   -0.0644 C   0  0  0  0  0  0  0  0  0  0  0  0
   -4.2063   -0.1544   -0.5304 N   0  0  0  0  0  0  0  0  0  0  0  0
   -5.3084    0.5747   -1.1670 C   0  0  0  0  0  0  0  0  0  0  0  0
   -2.9375    0.5152   -0.3495 C   0  0  0  0  0  0  0  0  0  0  0  0
   -2.8415    1.7399   -0.6413 O   0  0  0  0  0  0  0  0  0  0  0  0
   -1.7400   -0.1919    0.2601 C   0  0  2  0  0  0  0  0  0  0  0  0
   -1.6469    0.0224    1.7744 C   0  0  0  0  0  0  0  0  0  0  0  0
   -0.2468    0.3003    2.1189 N   0  0  0  0  0  0  0  0  0  0  0  0
    0.5333    0.0555    0.8992 C   0  0  2  0  0  0  0  0  0  0  0  0
    1.7793    0.9163    0.8082 C   0  0  0  0  0  0  0  0  0  0  0  0
    1.7189    2.1313    1.1434 O   0  0  0  0  0  0  0  0  0  0  0  0
    3.0132    0.3963    0.2782 N   0  0  0  0  0  0  0  0  0  0  0  0
    4.2298    1.1870    0.2063 C   0  0  0  0  0  0  0  0  0  0  0  0
    5.3078    0.2391   -0.3014 C   0  0  0  0  0  0  0  0  0  0  0  0
    4.5658   -0.9475   -0.9096 C   0  0  0  0  0  0  0  0  0  0  0  0
    3.1765   -0.9335   -0.2862 C   0  0  0  0  0  0  0  0  0  0  0  0
   -0.4003    0.2889   -0.2748 C   0  0  0  0  0  0  0  0  0  0  0  0
   -5.4744   -1.8436   -0.1694 H   0  0  0  0  0  0  0  0  0  0  0  0
   -3.7924   -2.2286   -0.6617 H   0  0  0  0  0  0  0  0  0  0  0  0
   -4.1457   -1.6107    1.0097 H   0  0  0  0  0  0  0  0  0  0  0  0
   -5.0006    0.9066   -2.1812 H   0  0  0  0  0  0  0  0  0  0  0  0
   -5.5722    1.4636   -0.5558 H   0  0  0  0  0  0  0  0  0  0  0  0
   -6.2157   -0.0561   -1.2736 H   0  0  0  0  0  0  0  0  0  0  0  0
   -1.7934   -1.2831    0.0567 H   0  0  0  0  0  0  0  0  0  0  0  0
   -2.3009    0.8608    2.1101 H   0  0  0  0  0  0  0  0  0  0  0  0
   -1.9771   -0.8949    2.3077 H   0  0  0  0  0  0  0  0  0  0  0  0
   -0.1888    1.3099    2.3907 H   0  0  0  0  0  0  0  0  0  0  0  0
    0.8246   -1.0169    0.9098 H   0  0  0  0  0  0  0  0  0  0  0  0
    4.0855    2.0294   -0.5047 H   0  0  0  0  0  0  0  0  0  0  0  0
    4.4969    1.5808    1.2111 H   0  0  0  0  0  0  0  0  0  0  0  0
    5.9630    0.7341   -1.0507 H   0  0  0  0  0  0  0  0  0  0  0  0
    5.9287   -0.1110    0.5525 H   0  0  0  0  0  0  0  0  0  0  0  0
    5.0936   -1.9038   -0.7031 H   0  0  0  0  0  0  0  0  0  0  0  0
    4.4824   -0.8068   -2.0099 H   0  0  0  0  0  0  0  0  0  0  0  0
    2.4033   -1.1273   -1.0609 H   0  0  0  0  0  0  0  0  0  0  0  0
    3.1091   -1.6935    0.5220 H   0  0  0  0  0  0  0  0  0  0  0  0
   -0.4233    1.3725   -0.5260 H   0  0  0  0  0  0  0  0  0  0  0  0
   -0.0848   -0.2911   -1.1697 H   0  0  0  0  0  0  0  0  0  0  0  0
  1  2  1  0
  2  3  1  0
  2  4  1  0
  4  5  2  0
  4  6  1  0
  6  7  1  0
  7  8  1  0
  8  9  1  0
  9 10  1  0
 10 11  2  0
 10 12  1  0
 12 13  1  0
 13 14  1  0
 14 15  1  0
 15 16  1  0
  9 17  1  0
 17  6  1  0
 16 12  1  0
  1 18  1  0
  1 19  1  0
  1 20  1  0
  3 21  1  0
  3 22  1  0
  3 23  1  0
  6 24  1  1
  7 25  1  0
  7 26  1  0
  8 27  1  0
  9 28  1  1
 13 29  1  0
 13 30  1  0
 14 31  1  0
 14 32  1  0
 15 33  1  0
 15 34  1  0
 16 35  1  0
 16 36  1  0
 17 37  1  0
 17 38  1  0
M  END
$$$$
