
     RDKit          3D

 47 48  0  0  0  0  0  0  0  0999 V2000
   -0.2891    0.6409   -3.5495 C   0  0  0  0  0  0  0  0  0  0  0  0
    0.3244    0.1297   -2.2239 C   0  0  0  0  0  0  0  0  0  0  0  0
    0.2509   -1.4182   -2.1984 C   0  0  0  0  0  0  0  0  0  0  0  0
    1.8130    0.5925   -2.2091 C   0  0  0  0  0  0  0  0  0  0  0  0
    2.5656    0.1236   -1.0400 N   0  0  0  0  0  0  0  0  0  0  0  0
    3.9397    0.4952   -0.8482 C   0  0  0  0  0  0  0  0  0  0  0  0
    4.5113    1.2326   -1.6980 O   0  0  0  0  0  0  0  0  0  0  0  0
    4.6906    0.0220    0.3361 C   0  0  0  0  0  0  0  0  0  0  0  0
    6.0370    0.3772    0.5298 C   0  0  0  0  0  0  0  0  0  0  0  0
    6.7149   -0.0868    1.6593 C   0  0  0  0  0  0  0  0  0  0  0  0
    6.0538   -0.8961    2.5837 C   0  0  0  0  0  0  0  0  0  0  0  0
    4.7171   -1.2310    2.3632 C   0  0  0  0  0  0  0  0  0  0  0  0
    4.0732   -0.7700    1.2578 N   0  0  0  0  0  0  0  0  0  0  0  0
   -0.3809    0.7454   -1.0681 N   0  0  0  0  0  0  0  0  0  0  0  0
   -1.7836    0.3294   -0.8921 C   0  0  0  0  0  0  0  0  0  0  0  0
   -2.4446    1.1576    0.1770 C   0  0  0  0  0  0  0  0  0  0  0  0
   -2.0405    2.3348    0.3839 O   0  0  0  0  0  0  0  0  0  0  0  0
   -3.5697    0.6503    0.9210 N   0  0  0  0  0  0  0  0  0  0  0  0
   -4.3052   -0.5481    0.5489 C   0  0  0  0  0  0  0  0  0  0  0  0
   -5.6137   -0.4835    1.3259 C   0  0  1  0  0  0  0  0  0  0  0  0
   -5.9697   -1.7326    1.8066 F   0  0  0  0  0  0  0  0  0  0  0  0
   -5.3710    0.4984    2.4695 C   0  0  0  0  0  0  0  0  0  0  0  0
   -4.2031    1.3765    2.0139 C   0  0  1  0  0  0  0  0  0  0  0  0
   -3.2486    1.6041    3.1123 C   0  0  0  0  0  0  0  0  0  0  0  0
   -2.4980    1.7829    3.9747 N   0  0  0  0  0  0  0  0  0  0  0  0
    0.3406    0.3453   -4.4166 H   0  0  0  0  0  0  0  0  0  0  0  0
   -1.2972    0.2162   -3.7329 H   0  0  0  0  0  0  0  0  0  0  0  0
   -0.3694    1.7492   -3.5359 H   0  0  0  0  0  0  0  0  0  0  0  0
    0.5013   -1.8191   -1.1949 H   0  0  0  0  0  0  0  0  0  0  0  0
    0.9537   -1.8547   -2.9404 H   0  0  0  0  0  0  0  0  0  0  0  0
   -0.7690   -1.7742   -2.4570 H   0  0  0  0  0  0  0  0  0  0  0  0
    2.3299    0.2289   -3.1250 H   0  0  0  0  0  0  0  0  0  0  0  0
    1.8431    1.7047   -2.2277 H   0  0  0  0  0  0  0  0  0  0  0  0
    2.1159   -0.4976   -0.3335 H   0  0  0  0  0  0  0  0  0  0  0  0
    6.5593    1.0047   -0.1815 H   0  0  0  0  0  0  0  0  0  0  0  0
    7.7516    0.1809    1.8175 H   0  0  0  0  0  0  0  0  0  0  0  0
    6.5716   -1.2599    3.4617 H   0  0  0  0  0  0  0  0  0  0  0  0
    4.1904   -1.8575    3.0705 H   0  0  0  0  0  0  0  0  0  0  0  0
    0.1201    0.5070   -0.1812 H   0  0  0  0  0  0  0  0  0  0  0  0
   -1.8258   -0.7408   -0.5980 H   0  0  0  0  0  0  0  0  0  0  0  0
   -2.3665    0.4752   -1.8220 H   0  0  0  0  0  0  0  0  0  0  0  0
   -4.5092   -0.5602   -0.5440 H   0  0  0  0  0  0  0  0  0  0  0  0
   -3.7177   -1.4471    0.8357 H   0  0  0  0  0  0  0  0  0  0  0  0
   -6.4223   -0.0958    0.6676 H   0  0  0  0  0  0  0  0  0  0  0  0
   -5.1155   -0.0726    3.3914 H   0  0  0  0  0  0  0  0  0  0  0  0
   -6.2779    1.1099    2.6691 H   0  0  0  0  0  0  0  0  0  0  0  0
   -4.5809    2.3534    1.6408 H   0  0  0  0  0  0  0  0  0  0  0  0
  1  2  1  0
  2  3  1  0
  2  4  1  0
  4  5  1  0
  5  6  1  0
  6  7  2  0
  6  8  1  0
  8  9  2  0
  9 10  1  0
 10 11  2  0
 11 12  1  0
 12 13  2  0
  2 14  1  0
 14 15  1  0
 15 16  1  0
 16 17  2  0
 16 18  1  0
 18 19  1  0
 19 20  1  0
 20 21  1  0
 20 22  1  0
 22 23  1  0
 23 24  1  0
 24 25  3  0
 13  8  1  0
 23 18  1  0
  1 26  1  0
  1 27  1  0
  1 28  1  0
  3 29  1  0
  3 30  1  0
  3 31  1  0
  4 32  1  0
  4 33  1  0
  5 34  1  0
  9 35  1  0
 10 36  1  0
 11 37  1  0
 12 38  1  0
 14 39  1  0
 15 40  1  0
 15 41  1  0
 19 42  1  0
 19 43  1  0
 20 44  1  6
 22 45  1  0
 22 46  1  0
 23 47  1  6
M  END
$$$$
