
     RDKit          3D

 35 36  0  0  0  0  0  0  0  0999 V2000
    0.4878   -1.9929    1.0144 N   0  0  0  0  0  0  0  0  0  0  0  0
   -0.4380   -0.9672    0.5238 C   0  0  1  0  0  0  0  0  0  0  0  0
    0.3167    0.1624   -0.2179 C   0  0  0  0  0  0  0  0  0  0  0  0
    1.2347    0.9166    0.7101 C   0  0  0  0  0  0  0  0  0  0  0  0
    0.7217    1.7239    1.5324 O   0  0  0  0  0  0  0  0  0  0  0  0
    2.6612    0.7063    0.7179 N   0  0  0  0  0  0  0  0  0  0  0  0
    3.4929    1.2480    1.7829 C   0  0  0  0  0  0  0  0  0  0  0  0
    4.8702    0.6191    1.6674 C   0  0  0  0  0  0  0  0  0  0  0  0
    5.1544    0.2087   -0.0757 S   0  0  0  0  0  0  0  0  0  0  0  0
    3.3702    0.0087   -0.3471 C   0  0  0  0  0  0  0  0  0  0  0  0
   -1.4874   -1.6388   -0.3848 C   0  0  0  0  0  0  0  0  0  0  0  0
   -2.6279   -0.7120   -0.7254 C   0  0  0  0  0  0  0  0  0  0  0  0
   -3.6243   -0.4382    0.2266 C   0  0  0  0  0  0  0  0  0  0  0  0
   -4.6719    0.4354   -0.0808 C   0  0  0  0  0  0  0  0  0  0  0  0
   -4.7313    1.0437   -1.3380 C   0  0  0  0  0  0  0  0  0  0  0  0
   -5.7471    1.8915   -1.6338 F   0  0  0  0  0  0  0  0  0  0  0  0
   -3.7419    0.7792   -2.2894 C   0  0  0  0  0  0  0  0  0  0  0  0
   -2.6929   -0.0942   -1.9861 C   0  0  0  0  0  0  0  0  0  0  0  0
    1.0845   -2.3316    0.2248 H   0  0  0  0  0  0  0  0  0  0  0  0
    1.1176   -1.5757    1.7374 H   0  0  0  0  0  0  0  0  0  0  0  0
   -0.9676   -0.5308    1.4010 H   0  0  0  0  0  0  0  0  0  0  0  0
    0.8633   -0.2558   -1.0873 H   0  0  0  0  0  0  0  0  0  0  0  0
   -0.4133    0.8933   -0.6255 H   0  0  0  0  0  0  0  0  0  0  0  0
    3.0553    1.0087    2.7767 H   0  0  0  0  0  0  0  0  0  0  0  0
    3.5644    2.3513    1.6678 H   0  0  0  0  0  0  0  0  0  0  0  0
    5.6552    1.3140    2.0333 H   0  0  0  0  0  0  0  0  0  0  0  0
    4.9069   -0.3198    2.2606 H   0  0  0  0  0  0  0  0  0  0  0  0
    3.1147   -1.0707   -0.3311 H   0  0  0  0  0  0  0  0  0  0  0  0
    3.1129    0.4500   -1.3329 H   0  0  0  0  0  0  0  0  0  0  0  0
   -1.9027   -2.5294    0.1364 H   0  0  0  0  0  0  0  0  0  0  0  0
   -0.9986   -2.0130   -1.3115 H   0  0  0  0  0  0  0  0  0  0  0  0
   -3.5878   -0.9003    1.2054 H   0  0  0  0  0  0  0  0  0  0  0  0
   -5.4366    0.6414    0.6571 H   0  0  0  0  0  0  0  0  0  0  0  0
   -3.7856    1.2523   -3.2620 H   0  0  0  0  0  0  0  0  0  0  0  0
   -1.9296   -0.2840   -2.7306 H   0  0  0  0  0  0  0  0  0  0  0  0
  1  2  1  0
  2  3  1  0
  3  4  1  0
  4  5  2  0
  4  6  1  0
  6  7  1  0
  7  8  1  0
  8  9  1  0
  9 10  1  0
  2 11  1  0
 11 12  1  0
 12 13  2  0
 13 14  1  0
 14 15  2  0
 15 16  1  0
 15 17  1  0
 17 18  2  0
 10  6  1  0
 18 12  1  0
  1 19  1  0
  1 20  1  0
  2 21  1  1
  3 22  1  0
  3 23  1  0
  7 24  1  0
  7 25  1  0
  8 26  1  0
  8 27  1  0
 10 28  1  0
 10 29  1  0
 11 30  1  0
 11 31  1  0
 13 32  1  0
 14 33  1  0
 17 34  1  0
 18 35  1  0
M  END
$$$$
