
     RDKit          3D

 48 51  0  0  0  0  0  0  0  0999 V2000
    3.5336    1.7924   -0.2819 N   0  0  0  0  0  0  0  0  0  0  0  0
    2.4486    2.1919   -0.2282 C   0  0  0  0  0  0  0  0  0  0  0  0
    1.0999    2.7000   -0.1694 C   0  0  0  0  0  0  0  0  0  0  0  0
    0.7635    3.7766   -1.0028 C   0  0  0  0  0  0  0  0  0  0  0  0
   -0.5155    4.3329   -0.9582 C   0  0  0  0  0  0  0  0  0  0  0  0
   -1.4644    3.8302   -0.0696 C   0  0  0  0  0  0  0  0  0  0  0  0
   -1.1431    2.7591    0.7662 C   0  0  0  0  0  0  0  0  0  0  0  0
    0.1287    2.1579    0.7094 C   0  0  0  0  0  0  0  0  0  0  0  0
    0.4255    0.9840    1.6255 C   0  0  0  0  0  0  0  0  0  0  0  0
    0.9173   -0.1995    0.8807 N   0  0  0  0  0  0  0  0  0  0  0  0
    0.1294   -0.7917   -0.0923 C   0  0  0  0  0  0  0  0  0  0  0  0
   -1.2144   -0.3520   -0.3371 N   0  0  0  0  0  0  0  0  0  0  0  0
   -1.5453    0.2110   -1.6524 C   0  0  0  0  0  0  0  0  0  0  0  0
   -3.0348    0.5531   -1.7486 C   0  0  0  0  0  0  0  0  0  0  0  0
   -3.9089   -0.6612   -1.3930 C   0  0  0  0  0  0  0  0  0  0  0  0
   -3.4261   -1.4411   -0.1378 C   0  0  1  0  0  0  0  0  0  0  0  0
   -3.0304   -2.8025   -0.5121 N   0  0  0  0  0  0  0  0  0  0  0  0
   -2.2806   -0.7200    0.6035 C   0  0  0  0  0  0  0  0  0  0  0  0
    0.6069   -1.8335   -0.8270 N   0  0  0  0  0  0  0  0  0  0  0  0
    1.8434   -2.3101   -0.5848 C   0  0  0  0  0  0  0  0  0  0  0  0
    2.5905   -3.5800   -1.3762 S   0  0  0  0  0  0  0  0  0  0  0  0
    4.0047   -3.4998   -0.4568 C   0  0  0  0  0  0  0  0  0  0  0  0
    3.8962   -2.4687    0.4862 C   0  0  0  0  0  0  0  0  0  0  0  0
    5.0000   -2.1379    1.4582 C   0  0  0  0  0  0  0  0  0  0  0  0
    5.4151   -0.8328    1.2670 F   0  0  0  0  0  0  0  0  0  0  0  0
    4.5437   -2.2941    2.7541 F   0  0  0  0  0  0  0  0  0  0  0  0
    6.0882   -2.9734    1.2747 F   0  0  0  0  0  0  0  0  0  0  0  0
    2.6521   -1.7979    0.4020 C   0  0  0  0  0  0  0  0  0  0  0  0
    2.1659   -0.7218    1.1599 C   0  0  0  0  0  0  0  0  0  0  0  0
    2.8730   -0.2347    2.0837 O   0  0  0  0  0  0  0  0  0  0  0  0
    1.4955    4.1919   -1.6855 H   0  0  0  0  0  0  0  0  0  0  0  0
   -0.7670    5.1636   -1.6048 H   0  0  0  0  0  0  0  0  0  0  0  0
   -2.4513    4.2724   -0.0259 H   0  0  0  0  0  0  0  0  0  0  0  0
   -1.8937    2.3981    1.4567 H   0  0  0  0  0  0  0  0  0  0  0  0
    1.1552    1.3381    2.3832 H   0  0  0  0  0  0  0  0  0  0  0  0
   -0.4738    0.6915    2.2079 H   0  0  0  0  0  0  0  0  0  0  0  0
   -1.2869   -0.5226   -2.4470 H   0  0  0  0  0  0  0  0  0  0  0  0
   -0.9498    1.1324   -1.8245 H   0  0  0  0  0  0  0  0  0  0  0  0
   -3.2727    0.8958   -2.7787 H   0  0  0  0  0  0  0  0  0  0  0  0
   -3.2636    1.3903   -1.0535 H   0  0  0  0  0  0  0  0  0  0  0  0
   -3.9475   -1.3381   -2.2752 H   0  0  0  0  0  0  0  0  0  0  0  0
   -4.9484   -0.3032   -1.2266 H   0  0  0  0  0  0  0  0  0  0  0  0
   -4.2831   -1.5207    0.5681 H   0  0  0  0  0  0  0  0  0  0  0  0
   -2.7992   -3.3394    0.3554 H   0  0  0  0  0  0  0  0  0  0  0  0
   -2.1653   -2.7665   -1.0989 H   0  0  0  0  0  0  0  0  0  0  0  0
   -1.8861   -1.3663    1.4189 H   0  0  0  0  0  0  0  0  0  0  0  0
   -2.6833    0.1982    1.0783 H   0  0  0  0  0  0  0  0  0  0  0  0
    4.8582   -4.1519   -0.5865 H   0  0  0  0  0  0  0  0  0  0  0  0
  1  2  3  0
  2  3  1  0
  3  4  2  0
  4  5  1  0
  5  6  2  0
  6  7  1  0
  7  8  2  0
  8  9  1  0
  9 10  1  0
 10 11  1  0
 11 12  1  0
 12 13  1  0
 13 14  1  0
 14 15  1  0
 15 16  1  0
 16 17  1  0
 16 18  1  0
 11 19  2  0
 19 20  1  0
 20 21  1  0
 21 22  1  0
 22 23  2  0
 23 24  1  0
 24 25  1  0
 24 26  1  0
 24 27  1  0
 23 28  1  0
 28 29  1  0
 29 30  2  0
  8  3  1  0
 29 10  1  0
 18 12  1  0
 28 20  2  0
  4 31  1  0
  5 32  1  0
  6 33  1  0
  7 34  1  0
  9 35  1  0
  9 36  1  0
 13 37  1  0
 13 38  1  0
 14 39  1  0
 14 40  1  0
 15 41  1  0
 15 42  1  0
 16 43  1  1
 17 44  1  0
 17 45  1  0
 18 46  1  0
 18 47  1  0
 22 48  1  0
M  END
$$$$
