
     RDKit          3D

 38 40  0  0  0  0  0  0  0  0999 V2000
   -2.5367   -1.1567    1.5228 C   0  0  0  0  0  0  0  0  0  0  0  0
   -1.9968   -0.9613    0.1013 C   0  0  0  0  0  0  0  0  0  0  0  0
   -2.7056   -1.8903   -0.8919 C   0  0  0  0  0  0  0  0  0  0  0  0
   -2.1087    0.4952   -0.3308 C   0  0  0  0  0  0  0  0  0  0  0  0
   -3.3781    1.0966   -0.4552 C   0  0  0  0  0  0  0  0  0  0  0  0
   -3.5014    2.4263   -0.8637 C   0  0  0  0  0  0  0  0  0  0  0  0
   -2.3638    3.1782   -1.1540 C   0  0  0  0  0  0  0  0  0  0  0  0
   -1.0982    2.6043   -1.0323 C   0  0  0  0  0  0  0  0  0  0  0  0
   -0.9584    1.2719   -0.6189 C   0  0  0  0  0  0  0  0  0  0  0  0
    0.3626    0.7231   -0.4935 N   0  0  0  0  0  0  0  0  0  0  0  0
    1.0249    0.1795   -1.6470 C   0  0  0  0  0  0  0  0  0  0  0  0
    0.4083    0.0856   -2.7432 O   0  0  0  0  0  0  0  0  0  0  0  0
    2.4712   -0.2236   -1.5926 C   0  0  0  0  0  0  0  0  0  0  0  0
    2.9698   -0.5012   -0.1948 C   0  0  0  0  0  0  0  0  0  0  0  0
    4.1915   -1.1767   -0.0367 C   0  0  0  0  0  0  0  0  0  0  0  0
    4.7225   -1.3940    1.2365 C   0  0  0  0  0  0  0  0  0  0  0  0
    4.0469   -0.9280    2.3645 C   0  0  0  0  0  0  0  0  0  0  0  0
    2.8377   -0.2437    2.2235 C   0  0  0  0  0  0  0  0  0  0  0  0
    2.2905   -0.0227    0.9464 C   0  0  0  0  0  0  0  0  0  0  0  0
    1.0012    0.6782    0.7914 C   0  0  0  0  0  0  0  0  0  0  0  0
    0.4485    1.2179    1.7896 O   0  0  0  0  0  0  0  0  0  0  0  0
   -2.0076   -0.4788    2.2264 H   0  0  0  0  0  0  0  0  0  0  0  0
   -3.6260   -0.9463    1.5714 H   0  0  0  0  0  0  0  0  0  0  0  0
   -2.3646   -2.2029    1.8544 H   0  0  0  0  0  0  0  0  0  0  0  0
   -0.9340   -1.2808    0.1197 H   0  0  0  0  0  0  0  0  0  0  0  0
   -2.5239   -2.9509   -0.6157 H   0  0  0  0  0  0  0  0  0  0  0  0
   -2.3070   -1.7258   -1.9160 H   0  0  0  0  0  0  0  0  0  0  0  0
   -3.8017   -1.7129   -0.8993 H   0  0  0  0  0  0  0  0  0  0  0  0
   -4.2781    0.5365   -0.2376 H   0  0  0  0  0  0  0  0  0  0  0  0
   -4.4824    2.8743   -0.9565 H   0  0  0  0  0  0  0  0  0  0  0  0
   -2.4625    4.2082   -1.4715 H   0  0  0  0  0  0  0  0  0  0  0  0
   -0.2200    3.1972   -1.2553 H   0  0  0  0  0  0  0  0  0  0  0  0
    2.6101   -1.1323   -2.2184 H   0  0  0  0  0  0  0  0  0  0  0  0
    3.0806    0.5947   -2.0312 H   0  0  0  0  0  0  0  0  0  0  0  0
    4.7367   -1.5305   -0.9032 H   0  0  0  0  0  0  0  0  0  0  0  0
    5.6625   -1.9188    1.3480 H   0  0  0  0  0  0  0  0  0  0  0  0
    4.4613   -1.0961    3.3502 H   0  0  0  0  0  0  0  0  0  0  0  0
    2.3288    0.1064    3.1128 H   0  0  0  0  0  0  0  0  0  0  0  0
  1  2  1  0
  2  3  1  0
  2  4  1  0
  4  5  2  0
  5  6  1  0
  6  7  2  0
  7  8  1  0
  8  9  2  0
  9 10  1  0
 10 11  1  0
 11 12  2  0
 11 13  1  0
 13 14  1  0
 14 15  2  0
 15 16  1  0
 16 17  2  0
 17 18  1  0
 18 19  2  0
 19 20  1  0
 20 21  2  0
  9  4  1  0
 20 10  1  0
 19 14  1  0
  1 22  1  0
  1 23  1  0
  1 24  1  0
  2 25  1  0
  3 26  1  0
  3 27  1  0
  3 28  1  0
  5 29  1  0
  6 30  1  0
  7 31  1  0
  8 32  1  0
 13 33  1  0
 13 34  1  0
 15 35  1  0
 16 36  1  0
 17 37  1  0
 18 38  1  0
M  END
$$$$
