
     RDKit          3D

 52 54  0  0  0  0  0  0  0  0999 V2000
   -3.7156   -0.9649   -1.4229 N   0  0  0  0  0  0  0  0  0  0  0  0
   -2.3302   -1.4010   -1.2103 C   0  0  2  0  0  0  0  0  0  0  0  0
   -1.7507   -0.8347    0.0760 C   0  0  0  0  0  0  0  0  0  0  0  0
   -1.0976   -1.6175    0.8189 O   0  0  0  0  0  0  0  0  0  0  0  0
   -1.8440    0.5547    0.4498 N   0  0  0  0  0  0  0  0  0  0  0  0
   -0.8151    1.1953    1.2552 C   0  0  0  0  0  0  0  0  0  0  0  0
   -1.4564    2.4407    1.8490 C   0  0  0  0  0  0  0  0  0  0  0  0
   -2.7403    2.6708    1.0603 C   0  0  0  0  0  0  0  0  0  0  0  0
   -3.0624    1.3470    0.3797 C   0  0  0  0  0  0  0  0  0  0  0  0
   -1.4296   -1.1709   -2.4651 C   0  0  1  0  0  0  0  0  0  0  0  0
   -1.2455    0.3048   -2.8699 C   0  0  0  0  0  0  0  0  0  0  0  0
    0.2489    0.5187   -3.0526 C   0  0  0  0  0  0  0  0  0  0  0  0
    0.9062   -0.5282   -2.1679 C   0  0  2  0  0  0  0  0  0  0  0  0
    2.2771   -0.8184   -2.6150 N   0  0  0  0  0  0  0  0  0  0  0  0
    3.1263   -1.7904   -1.4440 S   0  0  0  0  0  0  0  0  0  0  0  0
    2.6496   -3.2131   -1.5383 O   0  0  0  0  0  0  0  0  0  0  0  0
    4.5967   -1.7625   -1.7530 O   0  0  0  0  0  0  0  0  0  0  0  0
    2.8804   -1.1715    0.1895 C   0  0  0  0  0  0  0  0  0  0  0  0
    3.3454    0.1060    0.5225 C   0  0  0  0  0  0  0  0  0  0  0  0
    3.0895    0.6425    1.7874 C   0  0  0  0  0  0  0  0  0  0  0  0
    2.3637   -0.0939    2.7395 C   0  0  0  0  0  0  0  0  0  0  0  0
    2.0719    0.4863    4.0684 C   0  0  0  0  0  0  0  0  0  0  0  0
    1.4172   -0.1708    4.9224 O   0  0  0  0  0  0  0  0  0  0  0  0
    2.5144    1.7676    4.3874 O   0  0  0  0  0  0  0  0  0  0  0  0
    1.9065   -1.3805    2.4020 C   0  0  0  0  0  0  0  0  0  0  0  0
    2.1609   -1.9132    1.1350 C   0  0  0  0  0  0  0  0  0  0  0  0
   -0.0109   -1.7400   -2.2883 C   0  0  0  0  0  0  0  0  0  0  0  0
   -3.7527   -0.1636   -2.0914 H   0  0  0  0  0  0  0  0  0  0  0  0
   -4.2416   -1.7412   -1.8870 H   0  0  0  0  0  0  0  0  0  0  0  0
   -2.3625   -2.5068   -1.0643 H   0  0  0  0  0  0  0  0  0  0  0  0
   -0.4729    0.5234    2.0715 H   0  0  0  0  0  0  0  0  0  0  0  0
    0.0468    1.4668    0.6085 H   0  0  0  0  0  0  0  0  0  0  0  0
   -0.7761    3.3171    1.7782 H   0  0  0  0  0  0  0  0  0  0  0  0
   -1.7054    2.2598    2.9181 H   0  0  0  0  0  0  0  0  0  0  0  0
   -2.5647    3.4547    0.2906 H   0  0  0  0  0  0  0  0  0  0  0  0
   -3.5699    2.9952    1.7254 H   0  0  0  0  0  0  0  0  0  0  0  0
   -3.8819    0.8228    0.9177 H   0  0  0  0  0  0  0  0  0  0  0  0
   -3.3582    1.5409   -0.6694 H   0  0  0  0  0  0  0  0  0  0  0  0
   -1.9080   -1.7073   -3.3161 H   0  0  0  0  0  0  0  0  0  0  0  0
   -1.6074    1.0000   -2.0898 H   0  0  0  0  0  0  0  0  0  0  0  0
   -1.7888    0.5308   -3.8133 H   0  0  0  0  0  0  0  0  0  0  0  0
    0.5208    0.3474   -4.1185 H   0  0  0  0  0  0  0  0  0  0  0  0
    0.5519    1.5467   -2.7561 H   0  0  0  0  0  0  0  0  0  0  0  0
    0.8925   -0.1459   -1.1241 H   0  0  0  0  0  0  0  0  0  0  0  0
    2.7971    0.0880   -2.6684 H   0  0  0  0  0  0  0  0  0  0  0  0
    3.8899    0.6944   -0.2052 H   0  0  0  0  0  0  0  0  0  0  0  0
    3.4510    1.6373    2.0148 H   0  0  0  0  0  0  0  0  0  0  0  0
    2.3173    2.1756    5.2934 H   0  0  0  0  0  0  0  0  0  0  0  0
    1.3390   -1.9700    3.1111 H   0  0  0  0  0  0  0  0  0  0  0  0
    1.7794   -2.8957    0.8895 H   0  0  0  0  0  0  0  0  0  0  0  0
    0.0837   -2.4051   -1.4041 H   0  0  0  0  0  0  0  0  0  0  0  0
    0.2648   -2.3280   -3.1927 H   0  0  0  0  0  0  0  0  0  0  0  0
  1  2  1  0
  2  3  1  0
  3  4  2  0
  3  5  1  0
  5  6  1  0
  6  7  1  0
  7  8  1  0
  8  9  1  0
  2 10  1  0
 10 11  1  0
 11 12  1  0
 12 13  1  0
 13 14  1  0
 14 15  1  0
 15 16  2  0
 15 17  2  0
 15 18  1  0
 18 19  2  0
 19 20  1  0
 20 21  2  0
 21 22  1  0
 22 23  2  0
 22 24  1  0
 21 25  1  0
 25 26  2  0
 13 27  1  0
  9  5  1  0
 27 10  1  0
 26 18  1  0
  1 28  1  0
  1 29  1  0
  2 30  1  1
  6 31  1  0
  6 32  1  0
  7 33  1  0
  7 34  1  0
  8 35  1  0
  8 36  1  0
  9 37  1  0
  9 38  1  0
 10 39  1  6
 11 40  1  0
 11 41  1  0
 12 42  1  0
 12 43  1  0
 13 44  1  1
 14 45  1  0
 19 46  1  0
 20 47  1  0
 24 48  1  0
 25 49  1  0
 26 50  1  0
 27 51  1  0
 27 52  1  0
M  END
$$$$
