
     RDKit          3D

 45 47  0  0  0  0  0  0  0  0999 V2000
   -5.3997   -1.6011   -1.9044 C   0  0  0  0  0  0  0  0  0  0  0  0
   -5.3587   -0.3256   -1.2727 O   0  0  0  0  0  0  0  0  0  0  0  0
   -4.1963    0.2704   -0.7600 C   0  0  0  0  0  0  0  0  0  0  0  0
   -4.3077    1.5306   -0.1648 C   0  0  0  0  0  0  0  0  0  0  0  0
   -3.1768    2.1761    0.3658 C   0  0  0  0  0  0  0  0  0  0  0  0
   -3.2476    3.4404    0.9701 O   0  0  0  0  0  0  0  0  0  0  0  0
   -4.4443    4.1987    1.1128 C   0  0  0  0  0  0  0  0  0  0  0  0
   -1.9310    1.5450    0.2944 C   0  0  0  0  0  0  0  0  0  0  0  0
   -1.7945    0.2771   -0.2994 C   0  0  0  0  0  0  0  0  0  0  0  0
   -0.4660   -0.3821   -0.3703 C   0  0  0  0  0  0  0  0  0  0  0  0
   -0.3322   -1.5991   -0.9571 N   0  0  0  0  0  0  0  0  0  0  0  0
    0.8684   -2.2282   -1.0467 C   0  0  0  0  0  0  0  0  0  0  0  0
    0.9170   -3.5137   -1.6766 N   0  0  0  0  0  0  0  0  0  0  0  0
    2.0255   -1.6045   -0.5236 C   0  0  0  0  0  0  0  0  0  0  0  0
    3.3883   -2.2563   -0.6500 C   0  0  0  0  0  0  0  0  0  0  0  0
    3.4871   -3.3991    0.2522 N   0  0  0  0  0  0  0  0  0  0  0  0
    1.8595   -0.3477    0.1056 C   0  0  0  0  0  0  0  0  0  0  0  0
    2.9835    0.3886    0.7140 C   0  0  0  0  0  0  0  0  0  0  0  0
    3.5255   -0.0574    1.9294 C   0  0  0  0  0  0  0  0  0  0  0  0
    4.5828    0.6341    2.5262 C   0  0  0  0  0  0  0  0  0  0  0  0
    5.1019    1.7807    1.9184 C   0  0  0  0  0  0  0  0  0  0  0  0
    6.4292    2.6474    2.6695 Cl  0  0  0  0  0  0  0  0  0  0  0  0
    4.5604    2.2384    0.7129 C   0  0  0  0  0  0  0  0  0  0  0  0
    3.5008    1.5510    0.1085 C   0  0  0  0  0  0  0  0  0  0  0  0
    2.8582    2.1550   -1.4151 Cl  0  0  0  0  0  0  0  0  0  0  0  0
    0.6290    0.2238    0.1548 N   0  0  0  0  0  0  0  0  0  0  0  0
   -2.9367   -0.3540   -0.8257 C   0  0  0  0  0  0  0  0  0  0  0  0
   -4.7568   -1.5998   -2.8098 H   0  0  0  0  0  0  0  0  0  0  0  0
   -6.4430   -1.8207   -2.2103 H   0  0  0  0  0  0  0  0  0  0  0  0
   -5.0637   -2.3886   -1.1971 H   0  0  0  0  0  0  0  0  0  0  0  0
   -5.2820    1.9983   -0.1216 H   0  0  0  0  0  0  0  0  0  0  0  0
   -4.8734    4.4264    0.1142 H   0  0  0  0  0  0  0  0  0  0  0  0
   -4.2090    5.1543    1.6245 H   0  0  0  0  0  0  0  0  0  0  0  0
   -5.1804    3.6384    1.7272 H   0  0  0  0  0  0  0  0  0  0  0  0
   -1.0689    2.0548    0.7066 H   0  0  0  0  0  0  0  0  0  0  0  0
    0.0432   -3.9291   -2.0694 H   0  0  0  0  0  0  0  0  0  0  0  0
    1.7900   -4.0800   -1.7411 H   0  0  0  0  0  0  0  0  0  0  0  0
    4.2158   -1.5441   -0.4440 H   0  0  0  0  0  0  0  0  0  0  0  0
    3.5387   -2.5934   -1.6981 H   0  0  0  0  0  0  0  0  0  0  0  0
    3.5201   -3.0412    1.2338 H   0  0  0  0  0  0  0  0  0  0  0  0
    4.4056   -3.8665    0.0751 H   0  0  0  0  0  0  0  0  0  0  0  0
    3.1236   -0.9357    2.4186 H   0  0  0  0  0  0  0  0  0  0  0  0
    4.9949    0.2799    3.4625 H   0  0  0  0  0  0  0  0  0  0  0  0
    4.9635    3.1280    0.2452 H   0  0  0  0  0  0  0  0  0  0  0  0
   -2.8440   -1.3285   -1.2846 H   0  0  0  0  0  0  0  0  0  0  0  0
  1  2  1  0
  2  3  1  0
  3  4  2  0
  4  5  1  0
  5  6  1  0
  6  7  1  0
  5  8  2  0
  8  9  1  0
  9 10  1  0
 10 11  2  0
 11 12  1  0
 12 13  1  0
 12 14  2  0
 14 15  1  0
 15 16  1  0
 14 17  1  0
 17 18  1  0
 18 19  2  0
 19 20  1  0
 20 21  2  0
 21 22  1  0
 21 23  1  0
 23 24  2  0
 24 25  1  0
 17 26  2  0
  9 27  2  0
 27  3  1  0
 26 10  1  0
 24 18  1  0
  1 28  1  0
  1 29  1  0
  1 30  1  0
  4 31  1  0
  7 32  1  0
  7 33  1  0
  7 34  1  0
  8 35  1  0
 13 36  1  0
 13 37  1  0
 15 38  1  0
 15 39  1  0
 16 40  1  0
 16 41  1  0
 19 42  1  0
 20 43  1  0
 23 44  1  0
 27 45  1  0
M  END
$$$$
