
     RDKit          3D

 58 60  0  0  0  0  0  0  0  0999 V2000
   -2.0831   -0.9806   -1.2069 C   0  0  0  0  0  0  0  0  0  0  0  0
   -1.8404    0.4073   -1.8443 C   0  0  0  0  0  0  0  0  0  0  0  0
   -1.2645    0.1903   -3.2644 C   0  0  0  0  0  0  0  0  0  0  0  0
   -0.8258    1.2361   -0.9952 C   0  0  0  0  0  0  0  0  0  0  0  0
    0.5682    0.6672   -0.9760 C   0  0  0  0  0  0  0  0  0  0  0  0
    0.8570   -0.2446   -0.1538 O   0  0  0  0  0  0  0  0  0  0  0  0
    1.5575    1.1474   -1.8950 N   0  0  0  0  0  0  0  0  0  0  0  0
    2.8825    0.5409   -1.9689 C   0  0  1  0  0  0  0  0  0  0  0  0
    4.0006    1.5455   -2.2300 C   0  0  0  0  0  0  0  0  0  0  0  0
    3.7999    0.9712   -0.8302 C   0  0  2  0  0  0  0  0  0  0  0  0
    4.8236   -0.0423   -0.3486 C   0  0  0  0  0  0  0  0  0  0  0  0
    5.4267   -1.0018   -1.1891 C   0  0  0  0  0  0  0  0  0  0  0  0
    6.3688   -1.8964   -0.6783 C   0  0  0  0  0  0  0  0  0  0  0  0
    6.7169   -1.8581    0.6723 C   0  0  0  0  0  0  0  0  0  0  0  0
    6.1096   -0.9319    1.5352 C   0  0  0  0  0  0  0  0  0  0  0  0
    6.5183   -0.8556    2.9851 C   0  0  0  0  0  0  0  0  0  0  0  0
    6.9321   -2.0940    3.4449 F   0  0  0  0  0  0  0  0  0  0  0  0
    7.5590    0.0444    3.1176 F   0  0  0  0  0  0  0  0  0  0  0  0
    5.4571   -0.4367    3.7689 F   0  0  0  0  0  0  0  0  0  0  0  0
    5.1824   -0.0143    1.0099 C   0  0  0  0  0  0  0  0  0  0  0  0
   -3.1157    1.1567   -2.0096 N   0  0  0  0  0  0  0  0  0  0  0  0
   -3.8689    1.5214   -0.7916 C   0  0  0  0  0  0  0  0  0  0  0  0
   -4.6930    0.3791   -0.2439 C   0  0  0  0  0  0  0  0  0  0  0  0
   -5.4296   -0.2695   -1.0362 O   0  0  0  0  0  0  0  0  0  0  0  0
   -4.7085    0.0555    1.1632 N   0  0  0  0  0  0  0  0  0  0  0  0
   -3.7917    0.6190    2.1427 C   0  0  0  0  0  0  0  0  0  0  0  0
   -3.9407   -0.2351    3.3939 C   0  0  0  0  0  0  0  0  0  0  0  0
   -5.2555   -0.9906    3.2337 C   0  0  0  0  0  0  0  0  0  0  0  0
   -5.5645   -0.9767    1.7349 C   0  0  1  0  0  0  0  0  0  0  0  0
   -6.9860   -0.6740    1.4932 C   0  0  0  0  0  0  0  0  0  0  0  0
   -8.1024   -0.4361    1.3029 N   0  0  0  0  0  0  0  0  0  0  0  0
   -1.1781   -1.6193   -1.2894 H   0  0  0  0  0  0  0  0  0  0  0  0
   -2.3240   -0.8918   -0.1290 H   0  0  0  0  0  0  0  0  0  0  0  0
   -2.9166   -1.5052   -1.7208 H   0  0  0  0  0  0  0  0  0  0  0  0
   -1.0413    1.1678   -3.7435 H   0  0  0  0  0  0  0  0  0  0  0  0
   -0.3343   -0.4164   -3.2445 H   0  0  0  0  0  0  0  0  0  0  0  0
   -1.9956   -0.3491   -3.9046 H   0  0  0  0  0  0  0  0  0  0  0  0
   -0.7870    2.2778   -1.3819 H   0  0  0  0  0  0  0  0  0  0  0  0
   -1.1583    1.2974    0.0604 H   0  0  0  0  0  0  0  0  0  0  0  0
    1.2920    1.8682   -2.6034 H   0  0  0  0  0  0  0  0  0  0  0  0
    2.9723   -0.4810   -2.3915 H   0  0  0  0  0  0  0  0  0  0  0  0
    3.6716    2.6015   -2.3351 H   0  0  0  0  0  0  0  0  0  0  0  0
    4.8536    1.1450   -2.8147 H   0  0  0  0  0  0  0  0  0  0  0  0
    3.3614    1.6887   -0.1018 H   0  0  0  0  0  0  0  0  0  0  0  0
    5.1859   -1.0641   -2.2408 H   0  0  0  0  0  0  0  0  0  0  0  0
    6.8357   -2.6201   -1.3341 H   0  0  0  0  0  0  0  0  0  0  0  0
    7.4621   -2.5515    1.0412 H   0  0  0  0  0  0  0  0  0  0  0  0
    4.7373    0.7280    1.6619 H   0  0  0  0  0  0  0  0  0  0  0  0
   -3.7517    0.6610   -2.6785 H   0  0  0  0  0  0  0  0  0  0  0  0
   -3.2149    1.9791   -0.0304 H   0  0  0  0  0  0  0  0  0  0  0  0
   -4.5819    2.3269   -1.0665 H   0  0  0  0  0  0  0  0  0  0  0  0
   -2.7436    0.5677    1.7804 H   0  0  0  0  0  0  0  0  0  0  0  0
   -4.0724    1.6738    2.3519 H   0  0  0  0  0  0  0  0  0  0  0  0
   -3.1012   -0.9630    3.4509 H   0  0  0  0  0  0  0  0  0  0  0  0
   -3.9412    0.3911    4.3126 H   0  0  0  0  0  0  0  0  0  0  0  0
   -5.1656   -2.0318    3.6136 H   0  0  0  0  0  0  0  0  0  0  0  0
   -6.0424   -0.4645    3.8211 H   0  0  0  0  0  0  0  0  0  0  0  0
   -5.3115   -1.9598    1.2816 H   0  0  0  0  0  0  0  0  0  0  0  0
  1  2  1  0
  2  3  1  0
  2  4  1  0
  4  5  1  0
  5  6  2  0
  5  7  1  0
  7  8  1  0
  8  9  1  0
  9 10  1  0
 10 11  1  0
 11 12  2  0
 12 13  1  0
 13 14  2  0
 14 15  1  0
 15 16  1  0
 16 17  1  0
 16 18  1  0
 16 19  1  0
 15 20  2  0
  2 21  1  0
 21 22  1  0
 22 23  1  0
 23 24  2  0
 23 25  1  0
 25 26  1  0
 26 27  1  0
 27 28  1  0
 28 29  1  0
 29 30  1  0
 30 31  3  0
 10  8  1  0
 20 11  1  0
 29 25  1  0
  1 32  1  0
  1 33  1  0
  1 34  1  0
  3 35  1  0
  3 36  1  0
  3 37  1  0
  4 38  1  0
  4 39  1  0
  7 40  1  0
  8 41  1  6
  9 42  1  0
  9 43  1  0
 10 44  1  1
 12 45  1  0
 13 46  1  0
 14 47  1  0
 20 48  1  0
 21 49  1  0
 22 50  1  0
 22 51  1  0
 26 52  1  0
 26 53  1  0
 27 54  1  0
 27 55  1  0
 28 56  1  0
 28 57  1  0
 29 58  1  6
M  END
$$$$
