
     RDKit          3D

 44 45  0  0  0  0  0  0  0  0999 V2000
   -4.6508    1.8701   -1.0367 C   0  0  0  0  0  0  0  0  0  0  0  0
   -4.1554    0.7085   -0.1506 C   0  0  0  0  0  0  0  0  0  0  0  0
   -4.6599   -0.6229   -0.7368 C   0  0  0  0  0  0  0  0  0  0  0  0
   -4.7158    0.8928    1.2728 C   0  0  0  0  0  0  0  0  0  0  0  0
   -2.6389    0.6880   -0.1000 C   0  0  0  0  0  0  0  0  0  0  0  0
   -1.8469   -0.1564    0.6548 C   0  0  0  0  0  0  0  0  0  0  0  0
   -0.5757    0.1546    0.3541 N   0  0  0  0  0  0  0  0  0  0  0  0
    0.6253   -0.5124    0.8429 C   0  0  0  0  0  0  0  0  0  0  0  0
    0.9282   -1.7490   -0.0200 C   0  0  0  0  0  0  0  0  0  0  0  0
    2.3239   -2.3957    0.2060 C   0  0  2  0  0  0  0  0  0  0  0  0
    2.7364   -2.4072    1.6134 N   0  0  0  0  0  0  0  0  0  0  0  0
    3.4397   -1.8332   -0.7077 C   0  0  0  0  0  0  0  0  0  0  0  0
    3.6958   -0.3528   -0.5510 C   0  0  0  0  0  0  0  0  0  0  0  0
    3.0306    0.5660   -1.3831 C   0  0  0  0  0  0  0  0  0  0  0  0
    3.2420    1.9395   -1.2320 C   0  0  0  0  0  0  0  0  0  0  0  0
    2.5841    2.8160   -2.0307 F   0  0  0  0  0  0  0  0  0  0  0  0
    4.1276    2.4082   -0.2576 C   0  0  0  0  0  0  0  0  0  0  0  0
    4.3334    3.7404   -0.1099 F   0  0  0  0  0  0  0  0  0  0  0  0
    4.8062    1.5032    0.5627 C   0  0  0  0  0  0  0  0  0  0  0  0
    4.5972    0.1277    0.4183 C   0  0  0  0  0  0  0  0  0  0  0  0
    5.2787   -0.7317    1.2176 F   0  0  0  0  0  0  0  0  0  0  0  0
   -0.5794    1.1183   -0.5522 N   0  0  0  0  0  0  0  0  0  0  0  0
   -1.8238    1.4661   -0.8464 N   0  0  0  0  0  0  0  0  0  0  0  0
   -5.7617    1.8935   -1.0690 H   0  0  0  0  0  0  0  0  0  0  0  0
   -4.2780    1.7571   -2.0779 H   0  0  0  0  0  0  0  0  0  0  0  0
   -4.2943    2.8451   -0.6391 H   0  0  0  0  0  0  0  0  0  0  0  0
   -4.3442   -1.4790   -0.1021 H   0  0  0  0  0  0  0  0  0  0  0  0
   -4.2517   -0.7779   -1.7592 H   0  0  0  0  0  0  0  0  0  0  0  0
   -5.7697   -0.6288   -0.7980 H   0  0  0  0  0  0  0  0  0  0  0  0
   -5.8263    0.9375    1.2541 H   0  0  0  0  0  0  0  0  0  0  0  0
   -4.3348    1.8356    1.7219 H   0  0  0  0  0  0  0  0  0  0  0  0
   -4.4184    0.0476    1.9301 H   0  0  0  0  0  0  0  0  0  0  0  0
   -2.1615   -0.9342    1.3386 H   0  0  0  0  0  0  0  0  0  0  0  0
    1.4664    0.2078    0.8275 H   0  0  0  0  0  0  0  0  0  0  0  0
    0.4684   -0.8208    1.8995 H   0  0  0  0  0  0  0  0  0  0  0  0
    0.8137   -1.4911   -1.0953 H   0  0  0  0  0  0  0  0  0  0  0  0
    0.1487   -2.5105    0.2035 H   0  0  0  0  0  0  0  0  0  0  0  0
    2.2169   -3.4604   -0.1020 H   0  0  0  0  0  0  0  0  0  0  0  0
    2.8427   -1.4316    1.9699 H   0  0  0  0  0  0  0  0  0  0  0  0
    1.9884   -2.8709    2.1787 H   0  0  0  0  0  0  0  0  0  0  0  0
    3.1768   -2.0499   -1.7668 H   0  0  0  0  0  0  0  0  0  0  0  0
    4.3801   -2.3939   -0.5137 H   0  0  0  0  0  0  0  0  0  0  0  0
    2.3389    0.2186   -2.1403 H   0  0  0  0  0  0  0  0  0  0  0  0
    5.4972    1.8681    1.3118 H   0  0  0  0  0  0  0  0  0  0  0  0
  1  2  1  0
  2  3  1  0
  2  4  1  0
  2  5  1  0
  5  6  2  0
  6  7  1  0
  7  8  1  0
  8  9  1  0
  9 10  1  0
 10 11  1  0
 10 12  1  0
 12 13  1  0
 13 14  2  0
 14 15  1  0
 15 16  1  0
 15 17  2  0
 17 18  1  0
 17 19  1  0
 19 20  2  0
 20 21  1  0
  7 22  1  0
 22 23  2  0
 23  5  1  0
 20 13  1  0
  1 24  1  0
  1 25  1  0
  1 26  1  0
  3 27  1  0
  3 28  1  0
  3 29  1  0
  4 30  1  0
  4 31  1  0
  4 32  1  0
  6 33  1  0
  8 34  1  0
  8 35  1  0
  9 36  1  0
  9 37  1  0
 10 38  1  6
 11 39  1  0
 11 40  1  0
 12 41  1  0
 12 42  1  0
 14 43  1  0
 19 44  1  0
M  END
$$$$
