
     RDKit          3D

 55 57  0  0  0  0  0  0  0  0999 V2000
   -0.8216   -0.6895    1.2736 C   0  0  0  0  0  0  0  0  0  0  0  0
   -1.0251   -0.7648   -0.2589 C   0  0  0  0  0  0  0  0  0  0  0  0
   -0.6638   -2.1832   -0.7659 C   0  0  0  0  0  0  0  0  0  0  0  0
   -0.1064    0.2923   -0.9484 C   0  0  0  0  0  0  0  0  0  0  0  0
    1.3674    0.1222   -0.6876 C   0  0  0  0  0  0  0  0  0  0  0  0
    1.8914    0.6832    0.3132 O   0  0  0  0  0  0  0  0  0  0  0  0
    2.1724   -0.6661   -1.5734 N   0  0  0  0  0  0  0  0  0  0  0  0
    3.5759   -0.9395   -1.2830 C   0  0  1  0  0  0  0  0  0  0  0  0
    4.4623   -0.9693   -2.5244 C   0  0  0  0  0  0  0  0  0  0  0  0
    4.4905    0.2398   -1.5933 C   0  0  2  0  0  0  0  0  0  0  0  0
    5.7228    0.4061   -0.7218 C   0  0  0  0  0  0  0  0  0  0  0  0
    6.4191   -0.6750   -0.1366 C   0  0  0  0  0  0  0  0  0  0  0  0
    7.5455   -0.4442    0.6590 C   0  0  0  0  0  0  0  0  0  0  0  0
    7.9926    0.8594    0.8831 C   0  0  0  0  0  0  0  0  0  0  0  0
    9.0856    1.0765    1.6559 F   0  0  0  0  0  0  0  0  0  0  0  0
    7.3130    1.9373    0.3108 C   0  0  0  0  0  0  0  0  0  0  0  0
    7.7448    3.2045    0.5271 F   0  0  0  0  0  0  0  0  0  0  0  0
    6.1860    1.7119   -0.4859 C   0  0  0  0  0  0  0  0  0  0  0  0
   -2.4293   -0.4088   -0.5992 N   0  0  0  0  0  0  0  0  0  0  0  0
   -3.4557   -1.3970   -0.2279 C   0  0  0  0  0  0  0  0  0  0  0  0
   -4.8141   -0.7650   -0.3228 C   0  0  0  0  0  0  0  0  0  0  0  0
   -5.5601   -1.0665   -1.2937 O   0  0  0  0  0  0  0  0  0  0  0  0
   -5.2627    0.1967    0.6517 N   0  0  0  0  0  0  0  0  0  0  0  0
   -4.4947    0.5841    1.8250 C   0  0  0  0  0  0  0  0  0  0  0  0
   -5.3326    1.6379    2.5376 C   0  0  0  0  0  0  0  0  0  0  0  0
   -6.7435    1.4973    1.9728 C   0  0  0  0  0  0  0  0  0  0  0  0
   -6.5790    0.8167    0.6139 C   0  0  1  0  0  0  0  0  0  0  0  0
   -6.6398    1.7974   -0.4825 C   0  0  0  0  0  0  0  0  0  0  0  0
   -6.6868    2.5678   -1.3447 N   0  0  0  0  0  0  0  0  0  0  0  0
   -1.4269   -1.4443    1.8125 H   0  0  0  0  0  0  0  0  0  0  0  0
   -1.0954    0.3185    1.6512 H   0  0  0  0  0  0  0  0  0  0  0  0
    0.2341   -0.8942    1.5471 H   0  0  0  0  0  0  0  0  0  0  0  0
   -0.8366   -2.2592   -1.8606 H   0  0  0  0  0  0  0  0  0  0  0  0
    0.3987   -2.4242   -0.5549 H   0  0  0  0  0  0  0  0  0  0  0  0
   -1.2679   -2.9606   -0.2534 H   0  0  0  0  0  0  0  0  0  0  0  0
   -0.4079    1.3100   -0.6147 H   0  0  0  0  0  0  0  0  0  0  0  0
   -0.2687    0.2668   -2.0483 H   0  0  0  0  0  0  0  0  0  0  0  0
    1.7220   -1.1448   -2.3859 H   0  0  0  0  0  0  0  0  0  0  0  0
    3.8178   -1.6156   -0.4371 H   0  0  0  0  0  0  0  0  0  0  0  0
    3.9359   -0.7856   -3.4854 H   0  0  0  0  0  0  0  0  0  0  0  0
    5.3222   -1.6667   -2.4605 H   0  0  0  0  0  0  0  0  0  0  0  0
    3.9905    1.1441   -2.0055 H   0  0  0  0  0  0  0  0  0  0  0  0
    6.1049   -1.6980   -0.2870 H   0  0  0  0  0  0  0  0  0  0  0  0
    8.0722   -1.2795    1.1025 H   0  0  0  0  0  0  0  0  0  0  0  0
    5.6719    2.5608   -0.9201 H   0  0  0  0  0  0  0  0  0  0  0  0
   -2.5078   -0.2651   -1.6347 H   0  0  0  0  0  0  0  0  0  0  0  0
   -3.3200   -1.7714    0.8039 H   0  0  0  0  0  0  0  0  0  0  0  0
   -3.4146   -2.2710   -0.9156 H   0  0  0  0  0  0  0  0  0  0  0  0
   -4.3438   -0.2983    2.4838 H   0  0  0  0  0  0  0  0  0  0  0  0
   -3.5139    1.0097    1.5249 H   0  0  0  0  0  0  0  0  0  0  0  0
   -5.3202    1.4905    3.6394 H   0  0  0  0  0  0  0  0  0  0  0  0
   -4.9393    2.6508    2.2996 H   0  0  0  0  0  0  0  0  0  0  0  0
   -7.3359    0.8350    2.6422 H   0  0  0  0  0  0  0  0  0  0  0  0
   -7.2565    2.4832    1.9121 H   0  0  0  0  0  0  0  0  0  0  0  0
   -7.3685    0.0469    0.4709 H   0  0  0  0  0  0  0  0  0  0  0  0
  1  2  1  0
  2  3  1  0
  2  4  1  0
  4  5  1  0
  5  6  2  0
  5  7  1  0
  7  8  1  0
  8  9  1  0
  9 10  1  0
 10 11  1  0
 11 12  2  0
 12 13  1  0
 13 14  2  0
 14 15  1  0
 14 16  1  0
 16 17  1  0
 16 18  2  0
  2 19  1  0
 19 20  1  0
 20 21  1  0
 21 22  2  0
 21 23  1  0
 23 24  1  0
 24 25  1  0
 25 26  1  0
 26 27  1  0
 27 28  1  0
 28 29  3  0
 10  8  1  0
 18 11  1  0
 27 23  1  0
  1 30  1  0
  1 31  1  0
  1 32  1  0
  3 33  1  0
  3 34  1  0
  3 35  1  0
  4 36  1  0
  4 37  1  0
  7 38  1  0
  8 39  1  1
  9 40  1  0
  9 41  1  0
 10 42  1  6
 12 43  1  0
 13 44  1  0
 18 45  1  0
 19 46  1  0
 20 47  1  0
 20 48  1  0
 24 49  1  0
 24 50  1  0
 25 51  1  0
 25 52  1  0
 26 53  1  0
 26 54  1  0
 27 55  1  6
M  END
$$$$
