
     RDKit          3D

 51 54  0  0  0  0  0  0  0  0999 V2000
   -3.4460    1.6372    2.5182 C   0  0  0  0  0  0  0  0  0  0  0  0
   -3.8561    2.2622    1.2232 C   0  0  0  0  0  0  0  0  0  0  0  0
   -4.2580    3.5434    1.1125 N   0  0  0  0  0  0  0  0  0  0  0  0
   -4.5320    3.7520   -0.1431 O   0  0  0  0  0  0  0  0  0  0  0  0
   -4.3216    2.6743   -0.8634 C   0  0  0  0  0  0  0  0  0  0  0  0
   -4.5414    2.6043   -2.3395 C   0  0  0  0  0  0  0  0  0  0  0  0
   -3.8794    1.6635   -0.0265 C   0  0  0  0  0  0  0  0  0  0  0  0
   -3.5113    0.2755   -0.3829 C   0  0  0  0  0  0  0  0  0  0  0  0
   -4.3437   -0.4852   -1.2162 C   0  0  0  0  0  0  0  0  0  0  0  0
   -3.9911   -1.7883   -1.5678 C   0  0  0  0  0  0  0  0  0  0  0  0
   -2.8093   -2.3546   -1.0818 C   0  0  0  0  0  0  0  0  0  0  0  0
   -2.4685   -3.6155   -1.4568 N   0  0  0  0  0  0  0  0  0  0  0  0
   -1.3264   -4.2069   -1.0260 C   0  0  0  0  0  0  0  0  0  0  0  0
   -0.4665   -3.5281   -0.1643 C   0  0  0  0  0  0  0  0  0  0  0  0
   -0.7813   -2.2297    0.2650 C   0  0  0  0  0  0  0  0  0  0  0  0
    0.1262   -1.5724    1.2324 C   0  0  0  0  0  0  0  0  0  0  0  0
   -0.3482   -1.0343    2.2700 O   0  0  0  0  0  0  0  0  0  0  0  0
    1.5430   -1.5765    1.0113 N   0  0  0  0  0  0  0  0  0  0  0  0
    2.4641   -0.9565    1.9622 C   0  0  0  0  0  0  0  0  0  0  0  0
    3.8717   -0.9963    1.4386 C   0  0  0  0  0  0  0  0  0  0  0  0
    4.6296   -1.9352    1.8044 O   0  0  0  0  0  0  0  0  0  0  0  0
    4.3500   -0.0123    0.4998 N   0  0  0  0  0  0  0  0  0  0  0  0
    3.4915    0.9664   -0.1503 C   0  0  0  0  0  0  0  0  0  0  0  0
    4.3077    1.5190   -1.3133 C   0  0  0  0  0  0  0  0  0  0  0  0
    4.1195    2.8846   -1.4468 F   0  0  0  0  0  0  0  0  0  0  0  0
    3.9394    0.8870   -2.4902 F   0  0  0  0  0  0  0  0  0  0  0  0
    5.7645    1.1941   -0.9873 C   0  0  0  0  0  0  0  0  0  0  0  0
    5.7130    0.0126   -0.0153 C   0  0  1  0  0  0  0  0  0  0  0  0
    6.6844    0.1837    1.0788 C   0  0  0  0  0  0  0  0  0  0  0  0
    7.4471    0.3178    1.9387 N   0  0  0  0  0  0  0  0  0  0  0  0
   -1.9671   -1.6157   -0.2143 C   0  0  0  0  0  0  0  0  0  0  0  0
   -2.3227   -0.2891    0.1074 C   0  0  0  0  0  0  0  0  0  0  0  0
   -3.9337    2.1659    3.3638 H   0  0  0  0  0  0  0  0  0  0  0  0
   -3.7523    0.5704    2.5452 H   0  0  0  0  0  0  0  0  0  0  0  0
   -2.3451    1.7106    2.6353 H   0  0  0  0  0  0  0  0  0  0  0  0
   -5.5504    2.1925   -2.5469 H   0  0  0  0  0  0  0  0  0  0  0  0
   -4.4711    3.6219   -2.7770 H   0  0  0  0  0  0  0  0  0  0  0  0
   -3.7709    1.9603   -2.8130 H   0  0  0  0  0  0  0  0  0  0  0  0
   -5.2730   -0.0745   -1.5889 H   0  0  0  0  0  0  0  0  0  0  0  0
   -4.6399   -2.3583   -2.2216 H   0  0  0  0  0  0  0  0  0  0  0  0
   -1.0888   -5.2124   -1.3468 H   0  0  0  0  0  0  0  0  0  0  0  0
    0.4285   -4.0266    0.1879 H   0  0  0  0  0  0  0  0  0  0  0  0
    1.9142   -2.0033    0.1314 H   0  0  0  0  0  0  0  0  0  0  0  0
    2.1646    0.0976    2.1437 H   0  0  0  0  0  0  0  0  0  0  0  0
    2.4101   -1.4981    2.9314 H   0  0  0  0  0  0  0  0  0  0  0  0
    3.2371    1.7712    0.5729 H   0  0  0  0  0  0  0  0  0  0  0  0
    2.5596    0.4901   -0.5239 H   0  0  0  0  0  0  0  0  0  0  0  0
    6.2373    2.0863   -0.5163 H   0  0  0  0  0  0  0  0  0  0  0  0
    6.3375    0.9345   -1.9042 H   0  0  0  0  0  0  0  0  0  0  0  0
    5.9229   -0.9370   -0.5542 H   0  0  0  0  0  0  0  0  0  0  0  0
   -1.6673    0.3282    0.7045 H   0  0  0  0  0  0  0  0  0  0  0  0
  1  2  1  0
  2  3  2  0
  3  4  1  0
  4  5  1  0
  5  6  1  0
  5  7  2  0
  7  8  1  0
  8  9  2  0
  9 10  1  0
 10 11  2  0
 11 12  1  0
 12 13  2  0
 13 14  1  0
 14 15  2  0
 15 16  1  0
 16 17  2  0
 16 18  1  0
 18 19  1  0
 19 20  1  0
 20 21  2  0
 20 22  1  0
 22 23  1  0
 23 24  1  0
 24 25  1  0
 24 26  1  0
 24 27  1  0
 27 28  1  0
 28 29  1  0
 29 30  3  0
 15 31  1  0
 31 32  2  0
  7  2  1  0
 32  8  1  0
 31 11  1  0
 28 22  1  0
  1 33  1  0
  1 34  1  0
  1 35  1  0
  6 36  1  0
  6 37  1  0
  6 38  1  0
  9 39  1  0
 10 40  1  0
 13 41  1  0
 14 42  1  0
 18 43  1  0
 19 44  1  0
 19 45  1  0
 23 46  1  0
 23 47  1  0
 27 48  1  0
 27 49  1  0
 28 50  1  6
 32 51  1  0
M  END
$$$$
