
     RDKit          3D

 56 59  0  0  0  0  0  0  0  0999 V2000
    0.6878    0.0000    0.0000 Cl  0  0  0  0  0  0  0  0  0  0  0  0
    4.1657    2.2700    1.5311 C   0  0  0  0  0  0  0  0  0  0  0  0
    3.3376    1.2261    0.8946 N   0  0  0  0  0  0  0  0  0  0  0  0
    1.9701    1.2252    1.0992 C   0  0  0  0  0  0  0  0  0  0  0  0
    1.4313    2.0646    1.8682 O   0  0  0  0  0  0  0  0  0  0  0  0
    1.1870    0.2543    0.4673 C   0  0  0  0  0  0  0  0  0  0  0  0
    1.7618   -0.7219   -0.2842 C   0  0  0  0  0  0  0  0  0  0  0  0
    0.8348   -1.5917   -0.7259 N   0  0  0  0  0  0  0  0  0  0  0  0
   -0.3165   -1.0942   -0.2121 C   0  0  0  0  0  0  0  0  0  0  0  0
   -1.5791   -1.7549   -0.3853 N   0  0  0  0  0  0  0  0  0  0  0  0
   -1.9124   -2.3145   -1.6991 C   0  0  0  0  0  0  0  0  0  0  0  0
   -3.4282   -2.2799   -1.9167 C   0  0  0  0  0  0  0  0  0  0  0  0
   -4.1654   -2.9414   -0.7460 C   0  0  0  0  0  0  0  0  0  0  0  0
   -3.7806   -2.2790    0.5876 C   0  0  1  0  0  0  0  0  0  0  0  0
   -4.4769   -2.9392    1.6933 N   0  0  0  0  0  0  0  0  0  0  0  0
   -2.2541   -2.3224    0.7877 C   0  0  0  0  0  0  0  0  0  0  0  0
   -0.1500    0.0557    0.4982 N   0  0  0  0  0  0  0  0  0  0  0  0
   -1.2023    0.8889    1.1029 C   0  0  0  0  0  0  0  0  0  0  0  0
   -1.2201    2.2965    0.5400 C   0  0  0  0  0  0  0  0  0  0  0  0
   -1.1218    3.3874    1.4254 C   0  0  0  0  0  0  0  0  0  0  0  0
   -1.1459    4.6992    0.9471 C   0  0  0  0  0  0  0  0  0  0  0  0
   -1.2927    4.9430   -0.4178 C   0  0  0  0  0  0  0  0  0  0  0  0
   -1.4312    3.8757   -1.3058 C   0  0  0  0  0  0  0  0  0  0  0  0
   -1.4089    2.5554   -0.8385 C   0  0  0  0  0  0  0  0  0  0  0  0
   -1.6691    1.2716   -2.0101 Cl  0  0  0  0  0  0  0  0  0  0  0  0
    3.1341   -0.7684   -0.4995 C   0  0  0  0  0  0  0  0  0  0  0  0
    3.7210   -1.7732   -1.2838 C   0  0  0  0  0  0  0  0  0  0  0  0
    5.1011   -1.7870   -1.4823 C   0  0  0  0  0  0  0  0  0  0  0  0
    5.6662   -2.7576   -2.2418 F   0  0  0  0  0  0  0  0  0  0  0  0
    5.9012   -0.8039   -0.9006 C   0  0  0  0  0  0  0  0  0  0  0  0
    5.3308    0.2013   -0.1143 C   0  0  0  0  0  0  0  0  0  0  0  0
    3.9325    0.2450    0.1064 C   0  0  0  0  0  0  0  0  0  0  0  0
   -0.6878    0.0000    0.0000 H   0  0  0  0  0  0  0  0  0  0  0  0
    4.7170    2.8411    0.7541 H   0  0  0  0  0  0  0  0  0  0  0  0
    3.5697    3.0084    2.1060 H   0  0  0  0  0  0  0  0  0  0  0  0
    4.8840    1.8029    2.2379 H   0  0  0  0  0  0  0  0  0  0  0  0
   -1.4222   -1.7285   -2.5071 H   0  0  0  0  0  0  0  0  0  0  0  0
   -1.5455   -3.3625   -1.7590 H   0  0  0  0  0  0  0  0  0  0  0  0
   -3.6784   -2.8111   -2.8600 H   0  0  0  0  0  0  0  0  0  0  0  0
   -3.7625   -1.2238   -2.0161 H   0  0  0  0  0  0  0  0  0  0  0  0
   -3.9163   -4.0255   -0.7188 H   0  0  0  0  0  0  0  0  0  0  0  0
   -5.2612   -2.8443   -0.9055 H   0  0  0  0  0  0  0  0  0  0  0  0
   -4.1039   -1.2141    0.5551 H   0  0  0  0  0  0  0  0  0  0  0  0
   -4.2567   -2.4275    2.5788 H   0  0  0  0  0  0  0  0  0  0  0  0
   -4.1149   -3.9153    1.7994 H   0  0  0  0  0  0  0  0  0  0  0  0
   -1.9160   -3.3731    0.9241 H   0  0  0  0  0  0  0  0  0  0  0  0
   -1.9857   -1.7630    1.7095 H   0  0  0  0  0  0  0  0  0  0  0  0
   -2.2034    0.4508    0.9169 H   0  0  0  0  0  0  0  0  0  0  0  0
   -1.0576    0.8966    2.2047 H   0  0  0  0  0  0  0  0  0  0  0  0
   -1.0160    3.2241    2.4907 H   0  0  0  0  0  0  0  0  0  0  0  0
   -1.0543    5.5281    1.6371 H   0  0  0  0  0  0  0  0  0  0  0  0
   -1.3134    5.9604   -0.7866 H   0  0  0  0  0  0  0  0  0  0  0  0
   -1.5685    4.0769   -2.3608 H   0  0  0  0  0  0  0  0  0  0  0  0
    3.1139   -2.5437   -1.7437 H   0  0  0  0  0  0  0  0  0  0  0  0
    6.9723   -0.8203   -1.0572 H   0  0  0  0  0  0  0  0  0  0  0  0
    5.9998    0.9329    0.3155 H   0  0  0  0  0  0  0  0  0  0  0  0
  2  3  1  0
  3  4  1  0
  4  5  2  0
  4  6  1  0
  6  7  2  0
  7  8  1  0
  8  9  2  0
  9 10  1  0
 10 11  1  0
 11 12  1  0
 12 13  1  0
 13 14  1  0
 14 15  1  0
 14 16  1  0
  9 17  1  0
 17 18  1  0
 18 19  1  0
 19 20  2  0
 20 21  1  0
 21 22  2  0
 22 23  1  0
 23 24  2  0
 24 25  1  0
  7 26  1  0
 26 27  2  0
 27 28  1  0
 28 29  1  0
 28 30  2  0
 30 31  1  0
 31 32  2  0
 32  3  1  0
 17  6  1  0
 24 19  1  0
 32 26  1  0
 16 10  1  0
  1 33  1  0
  2 34  1  0
  2 35  1  0
  2 36  1  0
 11 37  1  0
 11 38  1  0
 12 39  1  0
 12 40  1  0
 13 41  1  0
 13 42  1  0
 14 43  1  6
 15 44  1  0
 15 45  1  0
 16 46  1  0
 16 47  1  0
 18 48  1  0
 18 49  1  0
 20 50  1  0
 21 51  1  0
 22 52  1  0
 23 53  1  0
 27 54  1  0
 30 55  1  0
 31 56  1  0
M  END
$$$$
