
     RDKit          3D

 81 85  0  0  0  0  0  0  0  0999 V2000
   -0.0696   -2.2763   -1.8962 C   0  0  0  0  0  0  0  0  0  0  0  0
   -1.3304   -1.5372   -1.9618 C   0  0  0  0  0  0  0  0  0  0  0  0
   -2.3670   -0.9240   -2.0126 C   0  0  0  0  0  0  0  0  0  0  0  0
   -3.6216   -0.1646   -2.0649 C   0  0  0  0  0  0  0  0  0  0  0  0
   -3.7090    0.7329   -0.9085 N   0  0  0  0  0  0  0  0  0  0  0  0
   -4.3475    0.5092    0.2742 C   0  0  0  0  0  0  0  0  0  0  0  0
   -5.2511   -0.5813    0.5074 N   0  0  0  0  0  0  0  0  0  0  0  0
   -5.0559   -1.4220    1.6952 C   0  0  0  0  0  0  0  0  0  0  0  0
   -6.1924   -2.4380    1.8534 C   0  0  0  0  0  0  0  0  0  0  0  0
   -7.5597   -1.7413    1.7869 C   0  0  0  0  0  0  0  0  0  0  0  0
   -7.7147   -0.7835    0.5717 C   0  0  1  0  0  0  0  0  0  0  0  0
   -8.0736    0.5599    1.0365 N   0  0  0  0  0  0  0  0  0  0  0  0
   -6.4542   -0.7364   -0.3195 C   0  0  0  0  0  0  0  0  0  0  0  0
   -4.0241    1.3982    1.2481 N   0  0  0  0  0  0  0  0  0  0  0  0
   -3.1488    2.2108    0.6274 C   0  0  0  0  0  0  0  0  0  0  0  0
   -2.9521    1.8199   -0.6536 C   0  0  0  0  0  0  0  0  0  0  0  0
   -2.0097    2.4685   -1.4446 C   0  0  0  0  0  0  0  0  0  0  0  0
   -1.8305    2.1200   -2.6436 O   0  0  0  0  0  0  0  0  0  0  0  0
   -1.2773    3.4927   -0.8867 N   0  0  0  0  0  0  0  0  0  0  0  0
   -0.2074    4.1354   -1.6806 C   0  0  0  0  0  0  0  0  0  0  0  0
    1.0155    3.2147   -1.8276 C   0  0  0  0  0  0  0  0  0  0  0  0
    1.6418    2.8440   -0.4755 C   0  0  0  0  0  0  0  0  0  0  0  0
    2.7416    1.8764   -0.6736 N   0  0  0  0  0  0  0  0  0  0  0  0
    2.2380    0.4867   -0.6770 C   0  0  0  0  0  0  0  0  0  0  0  0
    3.3280   -0.4776   -1.1782 C   0  0  0  0  0  0  0  0  0  0  0  0
    4.7499    0.0641   -0.9119 C   0  0  0  0  0  0  0  0  0  0  0  0
    5.7673   -1.0493   -0.9092 C   0  0  0  0  0  0  0  0  0  0  0  0
    6.5475   -1.1657   -1.8931 O   0  0  0  0  0  0  0  0  0  0  0  0
    5.8066   -2.0071    0.1632 N   0  0  0  0  0  0  0  0  0  0  0  0
    6.8813   -2.9401    0.3669 C   0  0  0  0  0  0  0  0  0  0  0  0
    6.6048   -4.1967    0.9281 C   0  0  0  0  0  0  0  0  0  0  0  0
    7.6359   -5.1129    1.1569 C   0  0  0  0  0  0  0  0  0  0  0  0
    8.9555   -4.7762    0.8410 C   0  0  0  0  0  0  0  0  0  0  0  0
   10.3635   -6.0272    1.1574 Br  0  0  0  0  0  0  0  0  0  0  0  0
    9.2442   -3.5184    0.3033 C   0  0  0  0  0  0  0  0  0  0  0  0
    8.2149   -2.6003    0.0724 C   0  0  0  0  0  0  0  0  0  0  0  0
    4.7944    0.8748    0.3946 C   0  0  0  0  0  0  0  0  0  0  0  0
    3.7843    2.0457    0.3662 C   0  0  0  0  0  0  0  0  0  0  0  0
   -1.5037    3.8734    0.4275 C   0  0  0  0  0  0  0  0  0  0  0  0
   -0.8127    4.7969    0.9434 O   0  0  0  0  0  0  0  0  0  0  0  0
   -2.4634    3.2428    1.1886 N   0  0  0  0  0  0  0  0  0  0  0  0
   -2.6720    3.6006    2.5981 C   0  0  0  0  0  0  0  0  0  0  0  0
    0.6356   -1.8732   -2.6519 H   0  0  0  0  0  0  0  0  0  0  0  0
    0.3716   -2.1656   -0.8842 H   0  0  0  0  0  0  0  0  0  0  0  0
   -0.2584   -3.3499   -2.1018 H   0  0  0  0  0  0  0  0  0  0  0  0
   -4.4638   -0.8806   -2.0819 H   0  0  0  0  0  0  0  0  0  0  0  0
   -3.6658    0.4204   -3.0063 H   0  0  0  0  0  0  0  0  0  0  0  0
   -4.0898   -1.9641    1.6085 H   0  0  0  0  0  0  0  0  0  0  0  0
   -5.0185   -0.7806    2.6028 H   0  0  0  0  0  0  0  0  0  0  0  0
   -6.1232   -3.2010    1.0474 H   0  0  0  0  0  0  0  0  0  0  0  0
   -6.0884   -2.9639    2.8269 H   0  0  0  0  0  0  0  0  0  0  0  0
   -7.7135   -1.1865    2.7392 H   0  0  0  0  0  0  0  0  0  0  0  0
   -8.3504   -2.5219    1.7454 H   0  0  0  0  0  0  0  0  0  0  0  0
   -8.5522   -1.1600   -0.0578 H   0  0  0  0  0  0  0  0  0  0  0  0
   -8.2978    1.1566    0.2070 H   0  0  0  0  0  0  0  0  0  0  0  0
   -7.2516    0.9912    1.5194 H   0  0  0  0  0  0  0  0  0  0  0  0
   -6.5402    0.0908   -1.0587 H   0  0  0  0  0  0  0  0  0  0  0  0
   -6.3803   -1.6864   -0.8917 H   0  0  0  0  0  0  0  0  0  0  0  0
    0.1121    5.1039   -1.2393 H   0  0  0  0  0  0  0  0  0  0  0  0
   -0.5939    4.3836   -2.6935 H   0  0  0  0  0  0  0  0  0  0  0  0
    1.7800    3.7357   -2.4440 H   0  0  0  0  0  0  0  0  0  0  0  0
    0.7210    2.3003   -2.3810 H   0  0  0  0  0  0  0  0  0  0  0  0
    0.8762    2.4280    0.2171 H   0  0  0  0  0  0  0  0  0  0  0  0
    2.0196    3.7872   -0.0182 H   0  0  0  0  0  0  0  0  0  0  0  0
    1.9209    0.1894    0.3494 H   0  0  0  0  0  0  0  0  0  0  0  0
    1.3502    0.3836   -1.3366 H   0  0  0  0  0  0  0  0  0  0  0  0
    3.1750   -1.4629   -0.6864 H   0  0  0  0  0  0  0  0  0  0  0  0
    3.2071   -0.6341   -2.2728 H   0  0  0  0  0  0  0  0  0  0  0  0
    5.0085    0.7645   -1.7394 H   0  0  0  0  0  0  0  0  0  0  0  0
    4.9705   -2.0864    0.7846 H   0  0  0  0  0  0  0  0  0  0  0  0
    5.5871   -4.4689    1.1790 H   0  0  0  0  0  0  0  0  0  0  0  0
    7.4085   -6.0823    1.5812 H   0  0  0  0  0  0  0  0  0  0  0  0
   10.2666   -3.2479    0.0722 H   0  0  0  0  0  0  0  0  0  0  0  0
    8.4660   -1.6204   -0.3106 H   0  0  0  0  0  0  0  0  0  0  0  0
    4.5480    0.2128    1.2534 H   0  0  0  0  0  0  0  0  0  0  0  0
    5.8203    1.2717    0.5598 H   0  0  0  0  0  0  0  0  0  0  0  0
    4.3411    2.9852    0.1564 H   0  0  0  0  0  0  0  0  0  0  0  0
    3.3227    2.1453    1.3758 H   0  0  0  0  0  0  0  0  0  0  0  0
   -3.6903    3.3157    2.9393 H   0  0  0  0  0  0  0  0  0  0  0  0
   -2.5774    4.6980    2.7429 H   0  0  0  0  0  0  0  0  0  0  0  0
   -1.9199    3.0815    3.2287 H   0  0  0  0  0  0  0  0  0  0  0  0
  1  2  1  0
  2  3  3  0
  3  4  1  0
  4  5  1  0
  5  6  1  0
  6  7  1  0
  7  8  1  0
  8  9  1  0
  9 10  1  0
 10 11  1  0
 11 12  1  0
 11 13  1  0
  6 14  2  0
 14 15  1  0
 15 16  2  0
 16 17  1  0
 17 18  2  0
 17 19  1  0
 19 20  1  0
 20 21  1  0
 21 22  1  0
 22 23  1  0
 23 24  1  0
 24 25  1  0
 25 26  1  0
 26 27  1  0
 27 28  2  0
 27 29  1  0
 29 30  1  0
 30 31  2  0
 31 32  1  0
 32 33  2  0
 33 34  1  0
 33 35  1  0
 35 36  2  0
 26 37  1  0
 37 38  1  0
 19 39  1  0
 39 40  2  0
 39 41  1  0
 41 42  1  0
 16  5  1  0
 38 23  1  0
 13  7  1  0
 41 15  1  0
 36 30  1  0
  1 43  1  0
  1 44  1  0
  1 45  1  0
  4 46  1  0
  4 47  1  0
  8 48  1  0
  8 49  1  0
  9 50  1  0
  9 51  1  0
 10 52  1  0
 10 53  1  0
 11 54  1  6
 12 55  1  0
 12 56  1  0
 13 57  1  0
 13 58  1  0
 20 59  1  0
 20 60  1  0
 21 61  1  0
 21 62  1  0
 22 63  1  0
 22 64  1  0
 24 65  1  0
 24 66  1  0
 25 67  1  0
 25 68  1  0
 26 69  1  0
 29 70  1  0
 31 71  1  0
 32 72  1  0
 35 73  1  0
 36 74  1  0
 37 75  1  0
 37 76  1  0
 38 77  1  0
 38 78  1  0
 42 79  1  0
 42 80  1  0
 42 81  1  0
M  END
$$$$
