
     RDKit          3D

 62 65  0  0  0  0  0  0  0  0999 V2000
   -0.2830    5.0660   -0.8530 C   0  0  0  0  0  0  0  0  0  0  0  0
   -0.7735    4.0577    0.1532 C   0  0  0  0  0  0  0  0  0  0  0  0
   -1.2518    4.5587    1.4929 C   0  0  0  0  0  0  0  0  0  0  0  0
   -0.7768    2.7426   -0.1530 C   0  0  0  0  0  0  0  0  0  0  0  0
   -1.2495    1.6767    0.8028 C   0  0  0  0  0  0  0  0  0  0  0  0
   -1.0992    0.3510    0.2004 N   0  0  0  0  0  0  0  0  0  0  0  0
   -2.0673   -0.3935   -0.3898 C   0  0  0  0  0  0  0  0  0  0  0  0
   -3.4026    0.0175   -0.4607 O   0  0  0  0  0  0  0  0  0  0  0  0
   -4.4379   -0.7875   -1.0204 C   0  0  0  0  0  0  0  0  0  0  0  0
   -4.8222   -1.9214   -0.0606 C   0  0  2  0  0  0  0  0  0  0  0  0
   -5.9197   -2.8055   -0.6359 C   0  0  0  0  0  0  0  0  0  0  0  0
   -6.6590   -3.2914    0.5844 C   0  0  0  0  0  0  0  0  0  0  0  0
   -6.4788   -2.1765    1.6016 C   0  0  0  0  0  0  0  0  0  0  0  0
   -5.3217   -1.3703    1.2026 N   0  0  0  0  0  0  0  0  0  0  0  0
   -1.6148   -1.5643   -0.9114 N   0  0  0  0  0  0  0  0  0  0  0  0
   -0.2980   -1.5219   -0.6268 C   0  0  0  0  0  0  0  0  0  0  0  0
    0.0179   -0.3808    0.0310 C   0  0  0  0  0  0  0  0  0  0  0  0
    1.3339   -0.1229    0.3960 C   0  0  0  0  0  0  0  0  0  0  0  0
    1.6397    0.9541    0.9773 O   0  0  0  0  0  0  0  0  0  0  0  0
    2.2906   -1.0686    0.1011 N   0  0  0  0  0  0  0  0  0  0  0  0
    3.7010   -0.8198    0.4658 C   0  0  0  0  0  0  0  0  0  0  0  0
    4.4225   -0.0511   -0.6148 C   0  0  0  0  0  0  0  0  0  0  0  0
    3.8385    0.1562   -1.7145 O   0  0  0  0  0  0  0  0  0  0  0  0
    5.8091    0.4530   -0.4197 C   0  0  0  0  0  0  0  0  0  0  0  0
    6.4068    1.2674   -1.4024 C   0  0  0  0  0  0  0  0  0  0  0  0
    7.7086    1.7484   -1.2329 C   0  0  0  0  0  0  0  0  0  0  0  0
    8.4319    1.4235   -0.0844 C   0  0  0  0  0  0  0  0  0  0  0  0
    7.8553    0.6159    0.8972 C   0  0  0  0  0  0  0  0  0  0  0  0
    6.5536    0.1316    0.7342 C   0  0  0  0  0  0  0  0  0  0  0  0
    1.9417   -2.2240   -0.5809 C   0  0  0  0  0  0  0  0  0  0  0  0
    2.8288   -3.0786   -0.8631 O   0  0  0  0  0  0  0  0  0  0  0  0
    0.6371   -2.4514   -0.9621 N   0  0  0  0  0  0  0  0  0  0  0  0
    0.2554   -3.6891   -1.6557 C   0  0  0  0  0  0  0  0  0  0  0  0
    0.5768    5.6246   -0.4273 H   0  0  0  0  0  0  0  0  0  0  0  0
    0.0454    4.5888   -1.8012 H   0  0  0  0  0  0  0  0  0  0  0  0
   -1.0984    5.7822   -1.0863 H   0  0  0  0  0  0  0  0  0  0  0  0
   -1.1768    5.6654    1.5507 H   0  0  0  0  0  0  0  0  0  0  0  0
   -0.6295    4.1275    2.3048 H   0  0  0  0  0  0  0  0  0  0  0  0
   -2.3140    4.2756    1.6483 H   0  0  0  0  0  0  0  0  0  0  0  0
   -0.4224    2.4244   -1.1306 H   0  0  0  0  0  0  0  0  0  0  0  0
   -0.6686    1.7221    1.7479 H   0  0  0  0  0  0  0  0  0  0  0  0
   -2.3166    1.8555    1.0561 H   0  0  0  0  0  0  0  0  0  0  0  0
   -5.3227   -0.1403   -1.2022 H   0  0  0  0  0  0  0  0  0  0  0  0
   -4.1103   -1.2019   -1.9992 H   0  0  0  0  0  0  0  0  0  0  0  0
   -3.9288   -2.5598    0.1334 H   0  0  0  0  0  0  0  0  0  0  0  0
   -6.6165   -2.2178   -1.2750 H   0  0  0  0  0  0  0  0  0  0  0  0
   -5.5005   -3.6512   -1.2236 H   0  0  0  0  0  0  0  0  0  0  0  0
   -7.7325   -3.4795    0.3650 H   0  0  0  0  0  0  0  0  0  0  0  0
   -6.1867   -4.2254    0.9618 H   0  0  0  0  0  0  0  0  0  0  0  0
   -7.3796   -1.5259    1.6056 H   0  0  0  0  0  0  0  0  0  0  0  0
   -6.3445   -2.5982    2.6232 H   0  0  0  0  0  0  0  0  0  0  0  0
   -4.5736   -1.4624    1.9302 H   0  0  0  0  0  0  0  0  0  0  0  0
    3.7543   -0.2524    1.4205 H   0  0  0  0  0  0  0  0  0  0  0  0
    4.2339   -1.7773    0.6509 H   0  0  0  0  0  0  0  0  0  0  0  0
    5.8678    1.5371   -2.3020 H   0  0  0  0  0  0  0  0  0  0  0  0
    8.1566    2.3745   -1.9937 H   0  0  0  0  0  0  0  0  0  0  0  0
    9.4396    1.7967    0.0446 H   0  0  0  0  0  0  0  0  0  0  0  0
    8.4184    0.3628    1.7863 H   0  0  0  0  0  0  0  0  0  0  0  0
    6.1415   -0.4967    1.5118 H   0  0  0  0  0  0  0  0  0  0  0  0
    0.1689   -4.5159   -0.9197 H   0  0  0  0  0  0  0  0  0  0  0  0
    1.0157   -3.9572   -2.4201 H   0  0  0  0  0  0  0  0  0  0  0  0
   -0.7138   -3.5771   -2.1866 H   0  0  0  0  0  0  0  0  0  0  0  0
  1  2  1  0
  2  3  1  0
  2  4  2  3
  4  5  1  0
  5  6  1  0
  6  7  1  0
  7  8  1  0
  8  9  1  0
  9 10  1  0
 10 11  1  0
 11 12  1  0
 12 13  1  0
 13 14  1  0
  7 15  2  0
 15 16  1  0
 16 17  2  0
 17 18  1  0
 18 19  2  0
 18 20  1  0
 20 21  1  0
 21 22  1  0
 22 23  2  0
 22 24  1  0
 24 25  2  0
 25 26  1  0
 26 27  2  0
 27 28  1  0
 28 29  2  0
 20 30  1  0
 30 31  2  0
 30 32  1  0
 32 33  1  0
 17  6  1  0
 29 24  1  0
 14 10  1  0
 32 16  1  0
  1 34  1  0
  1 35  1  0
  1 36  1  0
  3 37  1  0
  3 38  1  0
  3 39  1  0
  4 40  1  0
  5 41  1  0
  5 42  1  0
  9 43  1  0
  9 44  1  0
 10 45  1  1
 11 46  1  0
 11 47  1  0
 12 48  1  0
 12 49  1  0
 13 50  1  0
 13 51  1  0
 14 52  1  0
 21 53  1  0
 21 54  1  0
 25 55  1  0
 26 56  1  0
 27 57  1  0
 28 58  1  0
 29 59  1  0
 33 60  1  0
 33 61  1  0
 33 62  1  0
M  END
$$$$
