
     RDKit          3D

 46 49  0  0  0  0  0  0  0  0999 V2000
    2.5137    5.0958   -0.0619 C   0  0  0  0  0  0  0  0  0  0  0  0
    1.5081    4.0857   -0.4127 N   0  0  0  0  0  0  0  0  0  0  0  0
    0.7346    4.2593   -1.5389 C   0  0  0  0  0  0  0  0  0  0  0  0
   -0.1995    3.3327   -1.8956 N   0  0  0  0  0  0  0  0  0  0  0  0
   -0.3560    2.2392   -1.1172 C   0  0  0  0  0  0  0  0  0  0  0  0
   -1.2030    1.1745   -1.2898 C   0  0  0  0  0  0  0  0  0  0  0  0
   -2.1582    0.9826   -2.3485 C   0  0  0  0  0  0  0  0  0  0  0  0
   -2.9265    0.8281   -3.1997 N   0  0  0  0  0  0  0  0  0  0  0  0
   -0.9361    0.3276   -0.2217 C   0  0  0  0  0  0  0  0  0  0  0  0
   -1.5662   -0.9459   -0.0179 N   0  0  0  0  0  0  0  0  0  0  0  0
   -1.3621   -2.0406   -0.9683 C   0  0  0  0  0  0  0  0  0  0  0  0
   -2.7178   -2.6299   -1.3660 C   0  0  0  0  0  0  0  0  0  0  0  0
   -3.4946   -2.9805   -0.1684 N   0  0  0  0  0  0  0  0  0  0  0  0
   -3.7597   -1.7862    0.6465 C   0  0  0  0  0  0  0  0  0  0  0  0
   -2.4446   -1.1716    1.1303 C   0  0  0  0  0  0  0  0  0  0  0  0
    0.0337    0.8421    0.5849 N   0  0  0  0  0  0  0  0  0  0  0  0
    0.6503    0.1551    1.7272 C   0  0  0  0  0  0  0  0  0  0  0  0
    1.5964   -0.9149    1.2482 C   0  0  0  0  0  0  0  0  0  0  0  0
    1.3295   -2.2706    1.5055 C   0  0  0  0  0  0  0  0  0  0  0  0
    2.1987   -3.2614    1.0391 C   0  0  0  0  0  0  0  0  0  0  0  0
    3.3415   -2.9077    0.3174 C   0  0  0  0  0  0  0  0  0  0  0  0
    3.6177   -1.5620    0.0620 C   0  0  0  0  0  0  0  0  0  0  0  0
    2.7504   -0.5681    0.5254 C   0  0  0  0  0  0  0  0  0  0  0  0
    0.3858    2.0222    0.0084 C   0  0  0  0  0  0  0  0  0  0  0  0
    1.3528    2.9677    0.3753 C   0  0  0  0  0  0  0  0  0  0  0  0
    2.0671    2.8062    1.4011 O   0  0  0  0  0  0  0  0  0  0  0  0
    2.3247    5.4760    0.9647 H   0  0  0  0  0  0  0  0  0  0  0  0
    3.5282    4.6451   -0.1039 H   0  0  0  0  0  0  0  0  0  0  0  0
    2.4893    5.9623   -0.7575 H   0  0  0  0  0  0  0  0  0  0  0  0
    0.8590    5.1352   -2.1635 H   0  0  0  0  0  0  0  0  0  0  0  0
   -0.7436   -2.8293   -0.4892 H   0  0  0  0  0  0  0  0  0  0  0  0
   -0.8284   -1.6861   -1.8770 H   0  0  0  0  0  0  0  0  0  0  0  0
   -3.2784   -1.9008   -1.9934 H   0  0  0  0  0  0  0  0  0  0  0  0
   -2.5486   -3.5446   -1.9739 H   0  0  0  0  0  0  0  0  0  0  0  0
   -4.4169   -3.3591   -0.4872 H   0  0  0  0  0  0  0  0  0  0  0  0
   -4.3705   -2.0729    1.5295 H   0  0  0  0  0  0  0  0  0  0  0  0
   -4.3348   -1.0340    0.0599 H   0  0  0  0  0  0  0  0  0  0  0  0
   -2.6559   -0.2169    1.6602 H   0  0  0  0  0  0  0  0  0  0  0  0
   -1.9524   -1.8702    1.8398 H   0  0  0  0  0  0  0  0  0  0  0  0
   -0.1444   -0.2804    2.3673 H   0  0  0  0  0  0  0  0  0  0  0  0
    1.1897    0.8598    2.3862 H   0  0  0  0  0  0  0  0  0  0  0  0
    0.4480   -2.5632    2.0612 H   0  0  0  0  0  0  0  0  0  0  0  0
    1.9854   -4.3040    1.2365 H   0  0  0  0  0  0  0  0  0  0  0  0
    4.0131   -3.6759   -0.0433 H   0  0  0  0  0  0  0  0  0  0  0  0
    4.5034   -1.2888   -0.4968 H   0  0  0  0  0  0  0  0  0  0  0  0
    2.9771    0.4686    0.3158 H   0  0  0  0  0  0  0  0  0  0  0  0
  1  2  1  0
  2  3  1  0
  3  4  2  0
  4  5  1  0
  5  6  1  0
  6  7  1  0
  7  8  3  0
  6  9  2  0
  9 10  1  0
 10 11  1  0
 11 12  1  0
 12 13  1  0
 13 14  1  0
 14 15  1  0
  9 16  1  0
 16 17  1  0
 17 18  1  0
 18 19  2  0
 19 20  1  0
 20 21  2  0
 21 22  1  0
 22 23  2  0
 16 24  1  0
 24 25  1  0
 25 26  2  0
 25  2  1  0
 24  5  2  0
 15 10  1  0
 23 18  1  0
  1 27  1  0
  1 28  1  0
  1 29  1  0
  3 30  1  0
 11 31  1  0
 11 32  1  0
 12 33  1  0
 12 34  1  0
 13 35  1  0
 14 36  1  0
 14 37  1  0
 15 38  1  0
 15 39  1  0
 17 40  1  0
 17 41  1  0
 19 42  1  0
 20 43  1  0
 21 44  1  0
 22 45  1  0
 23 46  1  0
M  END
$$$$
