
     RDKit          3D

 59 63  0  0  0  0  0  0  0  0999 V2000
    2.7612   -3.7043    3.3735 C   0  0  0  0  0  0  0  0  0  0  0  0
    2.3087   -3.0967    2.1225 C   0  0  0  0  0  0  0  0  0  0  0  0
    1.9368   -2.5936    1.0925 C   0  0  0  0  0  0  0  0  0  0  0  0
    1.4860   -1.9754   -0.1575 C   0  0  0  0  0  0  0  0  0  0  0  0
    1.2382   -0.5463    0.0485 N   0  0  0  0  0  0  0  0  0  0  0  0
    2.0323    0.5031   -0.3038 C   0  0  0  0  0  0  0  0  0  0  0  0
    3.3437    0.3682   -0.8746 N   0  0  0  0  0  0  0  0  0  0  0  0
    4.3638   -0.4562   -0.2126 C   0  0  0  0  0  0  0  0  0  0  0  0
    5.6874    0.3104   -0.1416 C   0  0  0  0  0  0  0  0  0  0  0  0
    6.1678    0.8072   -1.5230 C   0  0  0  0  0  0  0  0  0  0  0  0
    5.0683    0.7950   -2.6070 C   0  0  0  0  0  0  0  0  0  0  0  0
    5.4519    1.6599   -3.7247 N   0  0  0  0  0  0  0  0  0  0  0  0
    3.7009    1.2060   -2.0269 C   0  0  0  0  0  0  0  0  0  0  0  0
    1.4703    1.7162   -0.0660 N   0  0  0  0  0  0  0  0  0  0  0  0
    0.2827    1.3931    0.4749 C   0  0  0  0  0  0  0  0  0  0  0  0
   -0.6980    2.2607    0.9272 C   0  0  0  0  0  0  0  0  0  0  0  0
   -1.8634    1.6920    1.4653 C   0  0  0  0  0  0  0  0  0  0  0  0
   -2.0321    0.3227    1.5239 N   0  0  0  0  0  0  0  0  0  0  0  0
   -3.2741   -0.2128    2.1176 C   0  0  0  0  0  0  0  0  0  0  0  0
   -4.5078    0.3529    1.4357 C   0  0  0  0  0  0  0  0  0  0  0  0
   -5.2798    1.2977    2.1359 C   0  0  0  0  0  0  0  0  0  0  0  0
   -6.4048    1.8783    1.5530 C   0  0  0  0  0  0  0  0  0  0  0  0
   -6.7832    1.5326    0.2585 C   0  0  0  0  0  0  0  0  0  0  0  0
   -6.0375    0.5957   -0.4687 C   0  0  0  0  0  0  0  0  0  0  0  0
   -6.4260    0.2558   -1.7744 C   0  0  0  0  0  0  0  0  0  0  0  0
   -5.6916   -0.6766   -2.5069 C   0  0  0  0  0  0  0  0  0  0  0  0
   -4.5678   -1.2797   -1.9442 C   0  0  0  0  0  0  0  0  0  0  0  0
   -4.1678   -0.9538   -0.6461 C   0  0  0  0  0  0  0  0  0  0  0  0
   -4.8895   -0.0089    0.1142 C   0  0  0  0  0  0  0  0  0  0  0  0
   -1.0235   -0.5208    1.0998 C   0  0  0  0  0  0  0  0  0  0  0  0
   -1.1310   -1.7720    1.2135 O   0  0  0  0  0  0  0  0  0  0  0  0
    0.1355    0.0435    0.5534 C   0  0  0  0  0  0  0  0  0  0  0  0
    2.0330   -3.4773    4.1792 H   0  0  0  0  0  0  0  0  0  0  0  0
    3.7546   -3.2924    3.6462 H   0  0  0  0  0  0  0  0  0  0  0  0
    2.8391   -4.8033    3.2441 H   0  0  0  0  0  0  0  0  0  0  0  0
    0.5619   -2.4786   -0.5092 H   0  0  0  0  0  0  0  0  0  0  0  0
    2.2515   -2.1301   -0.9441 H   0  0  0  0  0  0  0  0  0  0  0  0
    4.5106   -1.3996   -0.7804 H   0  0  0  0  0  0  0  0  0  0  0  0
    4.0492   -0.7124    0.8223 H   0  0  0  0  0  0  0  0  0  0  0  0
    5.5463    1.1859    0.5301 H   0  0  0  0  0  0  0  0  0  0  0  0
    6.4658   -0.3378    0.3162 H   0  0  0  0  0  0  0  0  0  0  0  0
    6.5691    1.8379   -1.4041 H   0  0  0  0  0  0  0  0  0  0  0  0
    7.0101    0.1691   -1.8695 H   0  0  0  0  0  0  0  0  0  0  0  0
    4.9771   -0.2466   -2.9907 H   0  0  0  0  0  0  0  0  0  0  0  0
    5.4233    2.6594   -3.4162 H   0  0  0  0  0  0  0  0  0  0  0  0
    4.7452    1.5512   -4.4884 H   0  0  0  0  0  0  0  0  0  0  0  0
    3.7276    2.2715   -1.7098 H   0  0  0  0  0  0  0  0  0  0  0  0
    2.9255    1.0925   -2.8158 H   0  0  0  0  0  0  0  0  0  0  0  0
   -0.5691    3.3341    0.8741 H   0  0  0  0  0  0  0  0  0  0  0  0
   -2.6326    2.3577    1.8366 H   0  0  0  0  0  0  0  0  0  0  0  0
   -3.2778    0.0281    3.2033 H   0  0  0  0  0  0  0  0  0  0  0  0
   -3.3223   -1.3209    2.0670 H   0  0  0  0  0  0  0  0  0  0  0  0
   -5.0052    1.5957    3.1403 H   0  0  0  0  0  0  0  0  0  0  0  0
   -6.9848    2.6047    2.1077 H   0  0  0  0  0  0  0  0  0  0  0  0
   -7.6598    1.9990   -0.1755 H   0  0  0  0  0  0  0  0  0  0  0  0
   -7.2981    0.7119   -2.2283 H   0  0  0  0  0  0  0  0  0  0  0  0
   -5.9960   -0.9344   -3.5131 H   0  0  0  0  0  0  0  0  0  0  0  0
   -4.0038   -2.0056   -2.5158 H   0  0  0  0  0  0  0  0  0  0  0  0
   -3.2979   -1.4537   -0.2516 H   0  0  0  0  0  0  0  0  0  0  0  0
  1  2  1  0
  2  3  3  0
  3  4  1  0
  4  5  1  0
  5  6  1  0
  6  7  1  0
  7  8  1  0
  8  9  1  0
  9 10  1  0
 10 11  1  0
 11 12  1  0
 11 13  1  0
  6 14  2  0
 14 15  1  0
 15 16  1  0
 16 17  2  0
 17 18  1  0
 18 19  1  0
 19 20  1  0
 20 21  2  0
 21 22  1  0
 22 23  2  0
 23 24  1  0
 24 25  2  0
 25 26  1  0
 26 27  2  0
 27 28  1  0
 28 29  2  0
 18 30  1  0
 30 31  2  0
 30 32  1  0
 32  5  1  0
 13  7  1  0
 32 15  2  0
 29 20  1  0
 29 24  1  0
  1 33  1  0
  1 34  1  0
  1 35  1  0
  4 36  1  0
  4 37  1  0
  8 38  1  0
  8 39  1  0
  9 40  1  0
  9 41  1  0
 10 42  1  0
 10 43  1  0
 11 44  1  0
 12 45  1  0
 12 46  1  0
 13 47  1  0
 13 48  1  0
 16 49  1  0
 17 50  1  0
 19 51  1  0
 19 52  1  0
 21 53  1  0
 22 54  1  0
 23 55  1  0
 25 56  1  0
 26 57  1  0
 27 58  1  0
 28 59  1  0
M  END
$$$$
