
     RDKit          3D

 41 41  0  0  0  0  0  0  0  0999 V2000
    5.4653   -0.4728    0.8539 C   0  0  0  0  0  0  0  0  0  0  0  0
    4.9718   -1.7396    0.1643 C   0  0  0  0  0  0  0  0  0  0  0  0
    3.5560   -1.8595    0.2858 O   0  0  0  0  0  0  0  0  0  0  0  0
    2.6505   -1.0892   -0.4542 C   0  0  0  0  0  0  0  0  0  0  0  0
    3.0659   -0.3056   -1.3516 O   0  0  0  0  0  0  0  0  0  0  0  0
    1.1975   -1.2615   -0.2279 C   0  0  0  0  0  0  0  0  0  0  0  0
    0.7241   -2.5614   -0.0614 C   0  0  0  0  0  0  0  0  0  0  0  0
   -0.5984   -2.7989    0.0746 N   0  0  0  0  0  0  0  0  0  0  0  0
   -1.5398   -1.8183    0.0658 C   0  0  0  0  0  0  0  0  0  0  0  0
   -2.9839   -2.2450    0.2334 C   0  0  0  0  0  0  0  0  0  0  0  0
   -3.1008   -3.6888    0.4330 N   0  0  0  0  0  0  0  0  0  0  0  0
   -1.1296   -0.4564   -0.0867 C   0  0  0  0  0  0  0  0  0  0  0  0
   -2.0454    0.6385   -0.1176 C   0  0  0  0  0  0  0  0  0  0  0  0
   -3.4312    0.4099   -0.0694 O   0  0  0  0  0  0  0  0  0  0  0  0
   -4.4380    1.4175   -0.0933 C   0  0  0  0  0  0  0  0  0  0  0  0
   -1.5542    1.9545   -0.2039 C   0  0  0  0  0  0  0  0  0  0  0  0
   -0.1813    2.2131   -0.2550 C   0  0  0  0  0  0  0  0  0  0  0  0
    0.3384    3.5162   -0.3108 O   0  0  0  0  0  0  0  0  0  0  0  0
   -0.4498    4.7021   -0.3202 C   0  0  0  0  0  0  0  0  0  0  0  0
    0.7139    1.1499   -0.2510 C   0  0  0  0  0  0  0  0  0  0  0  0
    0.2702   -0.1869   -0.2034 C   0  0  0  0  0  0  0  0  0  0  0  0
    0.6878    0.0000    0.0000 Cl  0  0  0  0  0  0  0  0  0  0  0  0
    5.1593   -0.4792    1.9214 H   0  0  0  0  0  0  0  0  0  0  0  0
    6.5731   -0.4242    0.7970 H   0  0  0  0  0  0  0  0  0  0  0  0
    5.0433    0.4270    0.3597 H   0  0  0  0  0  0  0  0  0  0  0  0
    5.4441   -2.6183    0.6519 H   0  0  0  0  0  0  0  0  0  0  0  0
    5.2702   -1.7379   -0.9067 H   0  0  0  0  0  0  0  0  0  0  0  0
    1.4068   -3.4021   -0.0659 H   0  0  0  0  0  0  0  0  0  0  0  0
   -3.5459   -1.9747   -0.6868 H   0  0  0  0  0  0  0  0  0  0  0  0
   -3.4278   -1.7270    1.1123 H   0  0  0  0  0  0  0  0  0  0  0  0
   -4.1186   -3.9295    0.4315 H   0  0  0  0  0  0  0  0  0  0  0  0
   -2.7459   -3.9165    1.3907 H   0  0  0  0  0  0  0  0  0  0  0  0
   -4.3759    1.9984   -1.0377 H   0  0  0  0  0  0  0  0  0  0  0  0
   -5.4344    0.9330   -0.0418 H   0  0  0  0  0  0  0  0  0  0  0  0
   -4.3266    2.0906    0.7829 H   0  0  0  0  0  0  0  0  0  0  0  0
   -2.2434    2.7845   -0.2212 H   0  0  0  0  0  0  0  0  0  0  0  0
    0.2222    5.5834   -0.3653 H   0  0  0  0  0  0  0  0  0  0  0  0
   -1.1113    4.7142   -1.2121 H   0  0  0  0  0  0  0  0  0  0  0  0
   -1.0563    4.7652    0.6080 H   0  0  0  0  0  0  0  0  0  0  0  0
    1.7659    1.3953   -0.2581 H   0  0  0  0  0  0  0  0  0  0  0  0
   -0.6878    0.0000    0.0000 H   0  0  0  0  0  0  0  0  0  0  0  0
  1  2  1  0
  2  3  1  0
  3  4  1  0
  4  5  2  0
  4  6  1  0
  6  7  2  0
  7  8  1  0
  8  9  2  0
  9 10  1  0
 10 11  1  0
  9 12  1  0
 12 13  2  0
 13 14  1  0
 14 15  1  0
 13 16  1  0
 16 17  2  0
 17 18  1  0
 18 19  1  0
 17 20  1  0
 20 21  2  0
 21  6  1  0
 21 12  1  0
  1 23  1  0
  1 24  1  0
  1 25  1  0
  2 26  1  0
  2 27  1  0
  7 28  1  0
 10 29  1  0
 10 30  1  0
 11 31  1  0
 11 32  1  0
 15 33  1  0
 15 34  1  0
 15 35  1  0
 16 36  1  0
 19 37  1  0
 19 38  1  0
 19 39  1  0
 20 40  1  0
 22 41  1  0
M  END
$$$$
