
     RDKit          3D

 38 40  0  0  0  0  0  0  0  0999 V2000
   -5.1186   -1.3114    0.5970 C   0  0  0  0  0  0  0  0  0  0  0  0
   -4.6439   -0.0651   -0.1595 C   0  0  0  0  0  0  0  0  0  0  0  0
   -5.2815    1.2054    0.4150 C   0  0  0  0  0  0  0  0  0  0  0  0
   -3.1298    0.0332   -0.1557 C   0  0  0  0  0  0  0  0  0  0  0  0
   -2.4195   -0.0090   -1.3683 C   0  0  0  0  0  0  0  0  0  0  0  0
   -1.0248    0.0805   -1.3772 C   0  0  0  0  0  0  0  0  0  0  0  0
   -0.3156    0.2144   -0.1751 C   0  0  0  0  0  0  0  0  0  0  0  0
    1.1210    0.3040   -0.1839 N   0  0  0  0  0  0  0  0  0  0  0  0
    1.7731    1.3888   -0.8703 C   0  0  0  0  0  0  0  0  0  0  0  0
    1.0927    2.2159   -1.5365 O   0  0  0  0  0  0  0  0  0  0  0  0
    3.2526    1.6196   -0.7447 C   0  0  0  0  0  0  0  0  0  0  0  0
    4.0221    0.4277   -0.2325 C   0  0  0  0  0  0  0  0  0  0  0  0
    5.4247    0.4508   -0.3126 C   0  0  0  0  0  0  0  0  0  0  0  0
    6.1826   -0.6028    0.2024 C   0  0  0  0  0  0  0  0  0  0  0  0
    5.5496   -1.6852    0.8130 C   0  0  0  0  0  0  0  0  0  0  0  0
    4.1569   -1.7179    0.9096 C   0  0  0  0  0  0  0  0  0  0  0  0
    3.3816   -0.6637    0.3910 C   0  0  0  0  0  0  0  0  0  0  0  0
    1.9082   -0.7050    0.4718 C   0  0  0  0  0  0  0  0  0  0  0  0
    1.3389   -1.6474    1.0894 O   0  0  0  0  0  0  0  0  0  0  0  0
   -1.0183    0.2555    1.0373 C   0  0  0  0  0  0  0  0  0  0  0  0
   -2.4129    0.1664    1.0486 C   0  0  0  0  0  0  0  0  0  0  0  0
   -6.2205   -1.4166    0.5023 H   0  0  0  0  0  0  0  0  0  0  0  0
   -4.6452   -2.2203    0.1678 H   0  0  0  0  0  0  0  0  0  0  0  0
   -4.8621   -1.2478    1.6758 H   0  0  0  0  0  0  0  0  0  0  0  0
   -5.0056   -0.1643   -1.2075 H   0  0  0  0  0  0  0  0  0  0  0  0
   -6.3869    1.1538    0.3162 H   0  0  0  0  0  0  0  0  0  0  0  0
   -4.9246    2.0966   -0.1444 H   0  0  0  0  0  0  0  0  0  0  0  0
   -5.0292    1.3305    1.4893 H   0  0  0  0  0  0  0  0  0  0  0  0
   -2.9436   -0.1134   -2.3101 H   0  0  0  0  0  0  0  0  0  0  0  0
   -0.4942    0.0373   -2.3200 H   0  0  0  0  0  0  0  0  0  0  0  0
    3.6505    1.9078   -1.7422 H   0  0  0  0  0  0  0  0  0  0  0  0
    3.4157    2.4708   -0.0500 H   0  0  0  0  0  0  0  0  0  0  0  0
    5.9323    1.2909   -0.7708 H   0  0  0  0  0  0  0  0  0  0  0  0
    7.2624   -0.5769    0.1330 H   0  0  0  0  0  0  0  0  0  0  0  0
    6.1388   -2.5002    1.2131 H   0  0  0  0  0  0  0  0  0  0  0  0
    3.6875   -2.5696    1.3859 H   0  0  0  0  0  0  0  0  0  0  0  0
   -0.4834    0.3639    1.9724 H   0  0  0  0  0  0  0  0  0  0  0  0
   -2.9310    0.2027    1.9980 H   0  0  0  0  0  0  0  0  0  0  0  0
  1  2  1  0
  2  3  1  0
  2  4  1  0
  4  5  2  0
  5  6  1  0
  6  7  2  0
  7  8  1  0
  8  9  1  0
  9 10  2  0
  9 11  1  0
 11 12  1  0
 12 13  2  0
 13 14  1  0
 14 15  2  0
 15 16  1  0
 16 17  2  0
 17 18  1  0
 18 19  2  0
  7 20  1  0
 20 21  2  0
 21  4  1  0
 18  8  1  0
 17 12  1  0
  1 22  1  0
  1 23  1  0
  1 24  1  0
  2 25  1  0
  3 26  1  0
  3 27  1  0
  3 28  1  0
  5 29  1  0
  6 30  1  0
 11 31  1  0
 11 32  1  0
 13 33  1  0
 14 34  1  0
 15 35  1  0
 16 36  1  0
 20 37  1  0
 21 38  1  0
M  END
$$$$
