
     RDKit          3D

 65 66  0  0  0  0  0  0  0  0999 V2000
    2.0577   -3.0386    0.3807 N   0  0  0  0  0  0  0  0  0  0  0  0
    1.6582   -2.0925   -0.6658 C   0  0  0  0  0  0  0  0  0  0  0  0
    1.1823   -0.7504   -0.0598 C   0  0  0  0  0  0  0  0  0  0  0  0
   -0.0433   -0.9338    0.7973 C   0  0  0  0  0  0  0  0  0  0  0  0
   -1.1355   -1.2073    0.2290 O   0  0  0  0  0  0  0  0  0  0  0  0
    0.0051   -0.8376    2.2362 N   0  0  0  0  0  0  0  0  0  0  0  0
    1.1838   -0.4510    2.9960 C   0  0  0  0  0  0  0  0  0  0  0  0
    0.7491   -0.4091    4.4561 C   0  0  0  0  0  0  0  0  0  0  0  0
   -0.5970   -1.1266    4.5214 C   0  0  0  0  0  0  0  0  0  0  0  0
   -1.1326   -1.1566    3.0889 C   0  0  1  0  0  0  0  0  0  0  0  0
   -2.2398   -0.1560    2.8854 C   0  0  0  0  0  0  0  0  0  0  0  0
   -3.4251   -0.5649    2.7534 O   0  0  0  0  0  0  0  0  0  0  0  0
   -1.9534    1.2487    2.8295 N   0  0  0  0  0  0  0  0  0  0  0  0
   -2.8508    2.1918    2.1699 C   0  0  0  0  0  0  0  0  0  0  0  0
   -2.8344    1.9538    0.6842 C   0  0  0  0  0  0  0  0  0  0  0  0
   -3.9369    1.3696    0.0435 C   0  0  0  0  0  0  0  0  0  0  0  0
   -3.8944    1.1067   -1.3269 C   0  0  0  0  0  0  0  0  0  0  0  0
   -2.7518    1.4183   -2.0677 C   0  0  0  0  0  0  0  0  0  0  0  0
   -1.6334    1.9961   -1.4412 C   0  0  0  0  0  0  0  0  0  0  0  0
   -0.4197    2.3240   -2.2198 C   0  0  0  0  0  0  0  0  0  0  0  0
   -0.4005    2.1596   -3.4695 O   0  0  0  0  0  0  0  0  0  0  0  0
    0.7126    2.8210   -1.5794 O   0  0  0  0  0  0  0  0  0  0  0  0
   -1.6831    2.2576   -0.0607 C   0  0  0  0  0  0  0  0  0  0  0  0
    2.8443   -1.8902   -1.6293 C   0  0  0  0  0  0  0  0  0  0  0  0
    2.4611   -1.1112   -2.8630 C   0  0  0  0  0  0  0  0  0  0  0  0
    2.8635    0.2267   -3.0150 C   0  0  0  0  0  0  0  0  0  0  0  0
    2.5130    0.9411   -4.1646 C   0  0  0  0  0  0  0  0  0  0  0  0
    1.7498    0.3309   -5.1635 C   0  0  0  0  0  0  0  0  0  0  0  0
    1.3367   -0.9957   -5.0152 C   0  0  0  0  0  0  0  0  0  0  0  0
    1.6914   -1.7164   -3.8708 C   0  0  0  0  0  0  0  0  0  0  0  0
    0.9424    1.1905   -0.8081 O   0  0  0  0  0  0  0  0  0  0  0  0
    0.5008    0.1789   -0.2001 C   0  0  0  0  0  0  0  0  0  0  0  0
    1.3385   -0.9062    0.0399 O   0  0  0  0  0  0  0  0  0  0  0  0
   -0.9351    0.1203    0.2094 C   0  0  0  0  0  0  0  0  0  0  0  0
   -1.0942   -0.7784    1.2484 F   0  0  0  0  0  0  0  0  0  0  0  0
   -1.7022   -0.2870   -0.8656 F   0  0  0  0  0  0  0  0  0  0  0  0
   -1.3593    1.3692    0.6258 F   0  0  0  0  0  0  0  0  0  0  0  0
    1.2239   -3.2917    0.9586 H   0  0  0  0  0  0  0  0  0  0  0  0
    2.7607   -2.5871    1.0100 H   0  0  0  0  0  0  0  0  0  0  0  0
    0.8181   -2.5452   -1.2398 H   0  0  0  0  0  0  0  0  0  0  0  0
    2.0102   -0.2759    0.5046 H   0  0  0  0  0  0  0  0  0  0  0  0
    0.9123   -0.0494   -0.8774 H   0  0  0  0  0  0  0  0  0  0  0  0
    1.5405    0.5512    2.6738 H   0  0  0  0  0  0  0  0  0  0  0  0
    1.9859   -1.2062    2.8568 H   0  0  0  0  0  0  0  0  0  0  0  0
    0.6241    0.6470    4.7812 H   0  0  0  0  0  0  0  0  0  0  0  0
    1.4987   -0.9009    5.1136 H   0  0  0  0  0  0  0  0  0  0  0  0
   -1.2878   -0.6207    5.2322 H   0  0  0  0  0  0  0  0  0  0  0  0
   -0.4356   -2.1691    4.8744 H   0  0  0  0  0  0  0  0  0  0  0  0
   -1.4993   -2.1804    2.8502 H   0  0  0  0  0  0  0  0  0  0  0  0
   -1.0175    1.5940    3.1385 H   0  0  0  0  0  0  0  0  0  0  0  0
   -3.8755    2.0956    2.5903 H   0  0  0  0  0  0  0  0  0  0  0  0
   -2.5086    3.2296    2.3735 H   0  0  0  0  0  0  0  0  0  0  0  0
   -4.8264    1.1116    0.6047 H   0  0  0  0  0  0  0  0  0  0  0  0
   -4.7483    0.6561   -1.8161 H   0  0  0  0  0  0  0  0  0  0  0  0
   -2.7424    1.2019   -3.1286 H   0  0  0  0  0  0  0  0  0  0  0  0
    1.5487    3.0506   -2.1029 H   0  0  0  0  0  0  0  0  0  0  0  0
   -0.8274    2.6912    0.4430 H   0  0  0  0  0  0  0  0  0  0  0  0
    3.2257   -2.8850   -1.9488 H   0  0  0  0  0  0  0  0  0  0  0  0
    3.6799   -1.3872   -1.0938 H   0  0  0  0  0  0  0  0  0  0  0  0
    3.4478    0.7159   -2.2455 H   0  0  0  0  0  0  0  0  0  0  0  0
    2.8275    1.9705   -4.2782 H   0  0  0  0  0  0  0  0  0  0  0  0
    1.4752    0.8873   -6.0503 H   0  0  0  0  0  0  0  0  0  0  0  0
    0.7434   -1.4666   -5.7883 H   0  0  0  0  0  0  0  0  0  0  0  0
    1.3690   -2.7453   -3.7700 H   0  0  0  0  0  0  0  0  0  0  0  0
    2.3092   -0.8872   -0.2496 H   0  0  0  0  0  0  0  0  0  0  0  0
  1  2  1  0
  2  3  1  0
  3  4  1  0
  4  5  2  0
  4  6  1  0
  6  7  1  0
  7  8  1  0
  8  9  1  0
  9 10  1  0
 10 11  1  0
 11 12  2  0
 11 13  1  0
 13 14  1  0
 14 15  1  0
 15 16  2  0
 16 17  1  0
 17 18  2  0
 18 19  1  0
 19 20  1  0
 20 21  2  0
 20 22  1  0
 19 23  2  0
  2 24  1  0
 24 25  1  0
 25 26  2  0
 26 27  1  0
 27 28  2  0
 28 29  1  0
 29 30  2  0
 31 32  2  0
 32 33  1  0
 32 34  1  0
 34 35  1  0
 34 36  1  0
 34 37  1  0
 10  6  1  0
 23 15  1  0
 30 25  1  0
  1 38  1  0
  1 39  1  0
  2 40  1  0
  3 41  1  0
  3 42  1  0
  7 43  1  0
  7 44  1  0
  8 45  1  0
  8 46  1  0
  9 47  1  0
  9 48  1  0
 10 49  1  6
 13 50  1  0
 14 51  1  0
 14 52  1  0
 16 53  1  0
 17 54  1  0
 18 55  1  0
 22 56  1  0
 23 57  1  0
 24 58  1  0
 24 59  1  0
 26 60  1  0
 27 61  1  0
 28 62  1  0
 29 63  1  0
 30 64  1  0
 33 65  1  0
M  END
$$$$
