
     RDKit          3D

 51 53  0  0  0  0  0  0  0  0999 V2000
   -3.1342    0.5937   -2.2797 N   0  0  0  0  0  0  0  0  0  0  0  0
   -2.6873   -0.7480   -1.8839 C   0  0  2  0  0  0  0  0  0  0  0  0
   -3.6573   -1.4154   -0.9250 C   0  0  0  0  0  0  0  0  0  0  0  0
   -3.8590   -2.6524   -1.0702 O   0  0  0  0  0  0  0  0  0  0  0  0
   -4.2771   -0.7422    0.1922 N   0  0  0  0  0  0  0  0  0  0  0  0
   -4.5233    0.6876    0.3025 C   0  0  0  0  0  0  0  0  0  0  0  0
   -5.4160    0.8619    1.5241 C   0  0  0  0  0  0  0  0  0  0  0  0
   -5.2910   -0.4336    2.3164 C   0  0  0  0  0  0  0  0  0  0  0  0
   -4.8290   -1.4819    1.3157 C   0  0  0  0  0  0  0  0  0  0  0  0
   -1.2176   -0.8036   -1.3645 C   0  0  1  0  0  0  0  0  0  0  0  0
   -0.2268   -0.2491   -2.4112 C   0  0  0  0  0  0  0  0  0  0  0  0
    1.2232   -0.4128   -1.9376 C   0  0  0  0  0  0  0  0  0  0  0  0
    1.4402    0.2730   -0.5775 C   0  0  2  0  0  0  0  0  0  0  0  0
    2.8170    0.0591   -0.1245 N   0  0  0  0  0  0  0  0  0  0  0  0
    3.5158    1.0210    0.6835 C   0  0  0  0  0  0  0  0  0  0  0  0
    2.9044    2.0387    1.1111 O   0  0  0  0  0  0  0  0  0  0  0  0
    4.9423    0.8278    1.0398 C   0  0  0  0  0  0  0  0  0  0  0  0
    5.4786    1.4684    2.1725 C   0  0  0  0  0  0  0  0  0  0  0  0
    6.8233    1.2966    2.5142 C   0  0  0  0  0  0  0  0  0  0  0  0
    7.6497    0.4913    1.7272 C   0  0  0  0  0  0  0  0  0  0  0  0
    8.9537    0.3290    2.0619 F   0  0  0  0  0  0  0  0  0  0  0  0
    7.1326   -0.1407    0.5930 C   0  0  0  0  0  0  0  0  0  0  0  0
    7.9367   -0.9124   -0.1797 F   0  0  0  0  0  0  0  0  0  0  0  0
    5.7875    0.0275    0.2475 C   0  0  0  0  0  0  0  0  0  0  0  0
    0.4572   -0.2784    0.4686 C   0  0  0  0  0  0  0  0  0  0  0  0
   -0.9952   -0.1129    0.0024 C   0  0  0  0  0  0  0  0  0  0  0  0
   -2.8352    0.7727   -3.2661 H   0  0  0  0  0  0  0  0  0  0  0  0
   -2.6781    1.3295   -1.6987 H   0  0  0  0  0  0  0  0  0  0  0  0
   -2.7072   -1.3767   -2.8054 H   0  0  0  0  0  0  0  0  0  0  0  0
   -5.0460    1.0665   -0.6017 H   0  0  0  0  0  0  0  0  0  0  0  0
   -3.5672    1.2269    0.4599 H   0  0  0  0  0  0  0  0  0  0  0  0
   -5.1067    1.7396    2.1323 H   0  0  0  0  0  0  0  0  0  0  0  0
   -6.4717    0.9963    1.2001 H   0  0  0  0  0  0  0  0  0  0  0  0
   -6.2577   -0.7175    2.7860 H   0  0  0  0  0  0  0  0  0  0  0  0
   -4.5202   -0.3096    3.1089 H   0  0  0  0  0  0  0  0  0  0  0  0
   -4.0524   -2.1370    1.7672 H   0  0  0  0  0  0  0  0  0  0  0  0
   -5.6899   -2.0960    0.9724 H   0  0  0  0  0  0  0  0  0  0  0  0
   -0.9765   -1.8832   -1.2270 H   0  0  0  0  0  0  0  0  0  0  0  0
   -0.3517   -0.7938   -3.3722 H   0  0  0  0  0  0  0  0  0  0  0  0
   -0.4248    0.8286   -2.5992 H   0  0  0  0  0  0  0  0  0  0  0  0
    1.4654   -1.4962   -1.8626 H   0  0  0  0  0  0  0  0  0  0  0  0
    1.9047    0.0386   -2.6910 H   0  0  0  0  0  0  0  0  0  0  0  0
    1.2573    1.3636   -0.7097 H   0  0  0  0  0  0  0  0  0  0  0  0
    3.2261   -0.8959   -0.2360 H   0  0  0  0  0  0  0  0  0  0  0  0
    4.8557    2.0937    2.8001 H   0  0  0  0  0  0  0  0  0  0  0  0
    7.2239    1.7890    3.3910 H   0  0  0  0  0  0  0  0  0  0  0  0
    5.4206   -0.4506   -0.6510 H   0  0  0  0  0  0  0  0  0  0  0  0
    0.6674   -1.3549    0.6555 H   0  0  0  0  0  0  0  0  0  0  0  0
    0.5930    0.2667    1.4278 H   0  0  0  0  0  0  0  0  0  0  0  0
   -1.2208    0.9718   -0.0584 H   0  0  0  0  0  0  0  0  0  0  0  0
   -1.6561   -0.5642    0.7716 H   0  0  0  0  0  0  0  0  0  0  0  0
  1  2  1  0
  2  3  1  0
  3  4  2  0
  3  5  1  0
  5  6  1  0
  6  7  1  0
  7  8  1  0
  8  9  1  0
  2 10  1  0
 10 11  1  0
 11 12  1  0
 12 13  1  0
 13 14  1  0
 14 15  1  0
 15 16  2  0
 15 17  1  0
 17 18  2  0
 18 19  1  0
 19 20  2  0
 20 21  1  0
 20 22  1  0
 22 23  1  0
 22 24  2  0
 13 25  1  0
 25 26  1  0
  9  5  1  0
 26 10  1  0
 24 17  1  0
  1 27  1  0
  1 28  1  0
  2 29  1  6
  6 30  1  0
  6 31  1  0
  7 32  1  0
  7 33  1  0
  8 34  1  0
  8 35  1  0
  9 36  1  0
  9 37  1  0
 10 38  1  1
 11 39  1  0
 11 40  1  0
 12 41  1  0
 12 42  1  0
 13 43  1  6
 14 44  1  0
 18 45  1  0
 19 46  1  0
 24 47  1  0
 25 48  1  0
 25 49  1  0
 26 50  1  0
 26 51  1  0
M  END
$$$$
