
     RDKit          3D

 70 73  0  0  0  0  0  0  0  0999 V2000
    0.3125    7.1886   -0.8637 C   0  0  0  0  0  0  0  0  0  0  0  0
   -0.5930    6.2956   -1.5043 O   0  0  0  0  0  0  0  0  0  0  0  0
   -0.7376    4.9406   -1.1712 C   0  0  0  0  0  0  0  0  0  0  0  0
   -1.6655    4.1766   -1.8829 C   0  0  0  0  0  0  0  0  0  0  0  0
   -1.8442    2.8220   -1.5921 C   0  0  0  0  0  0  0  0  0  0  0  0
   -1.0849    2.1907   -0.5879 C   0  0  0  0  0  0  0  0  0  0  0  0
   -1.3246    0.7073   -0.3043 C   0  0  0  0  0  0  0  0  0  0  0  0
   -1.0477   -0.1704   -1.5609 C   0  0  0  0  0  0  0  0  0  0  0  0
   -1.1473   -1.6932   -1.3337 C   0  0  0  0  0  0  0  0  0  0  0  0
   -2.4413   -2.1158   -0.6698 C   0  0  0  0  0  0  0  0  0  0  0  0
   -3.6627   -1.8566   -1.3155 C   0  0  0  0  0  0  0  0  0  0  0  0
   -4.8715   -2.2196   -0.7214 C   0  0  0  0  0  0  0  0  0  0  0  0
   -4.8788   -2.8602    0.5211 C   0  0  0  0  0  0  0  0  0  0  0  0
   -6.0808   -3.2225    1.1250 O   0  0  0  0  0  0  0  0  0  0  0  0
   -3.6714   -3.1450    1.1637 C   0  0  0  0  0  0  0  0  0  0  0  0
   -2.4422   -2.7854    0.5753 C   0  0  0  0  0  0  0  0  0  0  0  0
   -1.2171   -3.0796    1.1977 O   0  0  0  0  0  0  0  0  0  0  0  0
   -1.0790   -3.7955    2.4207 C   0  0  0  0  0  0  0  0  0  0  0  0
   -0.6591    0.2047    0.9914 C   0  0  0  0  0  0  0  0  0  0  0  0
   -1.4496    0.1020    2.1633 C   0  0  0  0  0  0  0  0  0  0  0  0
   -2.7938    0.4781    2.1484 O   0  0  0  0  0  0  0  0  0  0  0  0
   -0.8974   -0.3818    3.3535 C   0  0  0  0  0  0  0  0  0  0  0  0
    0.4384   -0.7658    3.4207 C   0  0  0  0  0  0  0  0  0  0  0  0
    0.9257   -1.2644    4.6383 O   0  0  0  0  0  0  0  0  0  0  0  0
    2.2560   -1.7281    4.8447 C   0  0  0  0  0  0  0  0  0  0  0  0
    1.2457   -0.6373    2.2819 C   0  0  0  0  0  0  0  0  0  0  0  0
    0.7217   -0.1466    1.0716 C   0  0  0  0  0  0  0  0  0  0  0  0
    1.6491    0.0565   -0.0657 C   0  0  0  0  0  0  0  0  0  0  0  0
    2.5505   -0.8693   -0.4236 C   0  0  0  0  0  0  0  0  0  0  0  0
    3.4845   -0.7152   -1.5658 C   0  0  0  0  0  0  0  0  0  0  0  0
    3.2466    0.1816   -2.6281 C   0  0  0  0  0  0  0  0  0  0  0  0
    4.1535    0.2784   -3.6882 C   0  0  0  0  0  0  0  0  0  0  0  0
    5.3005   -0.5193   -3.7105 C   0  0  0  0  0  0  0  0  0  0  0  0
    6.1946   -0.4099   -4.7732 O   0  0  0  0  0  0  0  0  0  0  0  0
    5.5374   -1.4227   -2.6676 C   0  0  0  0  0  0  0  0  0  0  0  0
    4.6332   -1.5235   -1.6063 C   0  0  0  0  0  0  0  0  0  0  0  0
   -0.1675    2.9755    0.1446 C   0  0  0  0  0  0  0  0  0  0  0  0
    0.0099    4.3304   -0.1494 C   0  0  0  0  0  0  0  0  0  0  0  0
    0.0671    7.2715    0.2161 H   0  0  0  0  0  0  0  0  0  0  0  0
    0.2205    8.1922   -1.3269 H   0  0  0  0  0  0  0  0  0  0  0  0
    1.3561    6.8316   -0.9926 H   0  0  0  0  0  0  0  0  0  0  0  0
   -2.2566    4.6369   -2.6645 H   0  0  0  0  0  0  0  0  0  0  0  0
   -2.5871    2.2675   -2.1507 H   0  0  0  0  0  0  0  0  0  0  0  0
   -2.4241    0.6241   -0.1707 H   0  0  0  0  0  0  0  0  0  0  0  0
   -1.7773    0.0979   -2.3542 H   0  0  0  0  0  0  0  0  0  0  0  0
   -0.0588    0.0630   -2.0012 H   0  0  0  0  0  0  0  0  0  0  0  0
   -1.0802   -2.2003   -2.3204 H   0  0  0  0  0  0  0  0  0  0  0  0
   -0.2621   -2.0344   -0.7604 H   0  0  0  0  0  0  0  0  0  0  0  0
   -3.6801   -1.3675   -2.2812 H   0  0  0  0  0  0  0  0  0  0  0  0
   -5.8029   -2.0031   -1.2288 H   0  0  0  0  0  0  0  0  0  0  0  0
   -6.9735   -3.0313    0.6851 H   0  0  0  0  0  0  0  0  0  0  0  0
   -3.7030   -3.6487    2.1200 H   0  0  0  0  0  0  0  0  0  0  0  0
   -0.0016   -3.8773    2.6717 H   0  0  0  0  0  0  0  0  0  0  0  0
   -1.5933   -3.2545    3.2424 H   0  0  0  0  0  0  0  0  0  0  0  0
   -1.4999   -4.8174    2.3138 H   0  0  0  0  0  0  0  0  0  0  0  0
   -3.3792    0.4040    2.9722 H   0  0  0  0  0  0  0  0  0  0  0  0
   -1.5176   -0.4693    4.2370 H   0  0  0  0  0  0  0  0  0  0  0  0
    2.4767   -2.5722    4.1574 H   0  0  0  0  0  0  0  0  0  0  0  0
    2.3571   -2.0852    5.8900 H   0  0  0  0  0  0  0  0  0  0  0  0
    2.9786   -0.9011    4.6806 H   0  0  0  0  0  0  0  0  0  0  0  0
    2.2960   -0.8884    2.3413 H   0  0  0  0  0  0  0  0  0  0  0  0
    1.5716    0.9794   -0.6181 H   0  0  0  0  0  0  0  0  0  0  0  0
    2.6185   -1.7834    0.1551 H   0  0  0  0  0  0  0  0  0  0  0  0
    2.3565    0.7933   -2.6637 H   0  0  0  0  0  0  0  0  0  0  0  0
    3.9602    0.9704   -4.4982 H   0  0  0  0  0  0  0  0  0  0  0  0
    7.0343   -0.9752   -4.8189 H   0  0  0  0  0  0  0  0  0  0  0  0
    6.4210   -2.0482   -2.6785 H   0  0  0  0  0  0  0  0  0  0  0  0
    4.8356   -2.2294   -0.8098 H   0  0  0  0  0  0  0  0  0  0  0  0
    0.4167    2.5584    0.9516 H   0  0  0  0  0  0  0  0  0  0  0  0
    0.7281    4.8955    0.4288 H   0  0  0  0  0  0  0  0  0  0  0  0
  1  2  1  0
  2  3  1  0
  3  4  2  0
  4  5  1  0
  5  6  2  0
  6  7  1  0
  7  8  1  0
  8  9  1  0
  9 10  1  0
 10 11  2  0
 11 12  1  0
 12 13  2  0
 13 14  1  0
 13 15  1  0
 15 16  2  0
 16 17  1  0
 17 18  1  0
  7 19  1  0
 19 20  2  0
 20 21  1  0
 20 22  1  0
 22 23  2  0
 23 24  1  0
 24 25  1  0
 23 26  1  0
 26 27  2  0
 27 28  1  0
 28 29  2  0
 29 30  1  0
 30 31  2  0
 31 32  1  0
 32 33  2  0
 33 34  1  0
 33 35  1  0
 35 36  2  0
  6 37  1  0
 37 38  2  0
 38  3  1  0
 16 10  1  0
 27 19  1  0
 36 30  1  0
  1 39  1  0
  1 40  1  0
  1 41  1  0
  4 42  1  0
  5 43  1  0
  7 44  1  0
  8 45  1  0
  8 46  1  0
  9 47  1  0
  9 48  1  0
 11 49  1  0
 12 50  1  0
 14 51  1  0
 15 52  1  0
 18 53  1  0
 18 54  1  0
 18 55  1  0
 21 56  1  0
 22 57  1  0
 25 58  1  0
 25 59  1  0
 25 60  1  0
 26 61  1  0
 28 62  1  0
 29 63  1  0
 31 64  1  0
 32 65  1  0
 34 66  1  0
 35 67  1  0
 36 68  1  0
 37 69  1  0
 38 70  1  0
M  END
$$$$
