
     RDKit          3D

 65 69  0  0  0  0  0  0  0  0999 V2000
    0.2724    0.9009   -2.6259 O   0  0  0  0  0  0  0  0  0  0  0  0
    0.0331    1.7303   -1.7055 C   0  0  0  0  0  0  0  0  0  0  0  0
   -0.4655    1.2346   -0.3649 C   0  0  2  0  0  0  0  0  0  0  0  0
    0.6765    1.1349    0.6504 C   0  0  0  0  0  0  0  0  0  0  0  0
    0.9790   -0.3585    0.8194 C   0  0  2  0  0  0  0  0  0  0  0  0
    2.2090   -0.7212    0.1088 N   0  0  0  0  0  0  0  0  0  0  0  0
    3.3659   -1.1161    0.6659 C   0  0  0  0  0  0  0  0  0  0  0  0
    4.2523   -1.3122   -0.3767 C   0  0  0  0  0  0  0  0  0  0  0  0
    5.6752   -1.7243   -0.2751 C   0  0  0  0  0  0  0  0  0  0  0  0
    6.3802   -1.4708    0.9183 C   0  0  0  0  0  0  0  0  0  0  0  0
    7.7239   -1.8303    1.0441 C   0  0  0  0  0  0  0  0  0  0  0  0
    8.3847   -2.4495   -0.0155 C   0  0  0  0  0  0  0  0  0  0  0  0
    7.7028   -2.7144   -1.2034 C   0  0  0  0  0  0  0  0  0  0  0  0
    6.3548   -2.3596   -1.3446 C   0  0  0  0  0  0  0  0  0  0  0  0
    5.5603   -2.7869   -2.8577 Cl  0  0  0  0  0  0  0  0  0  0  0  0
    3.6102   -1.0166   -1.5266 N   0  0  0  0  0  0  0  0  0  0  0  0
    2.3758   -0.6612   -1.2029 N   0  0  0  0  0  0  0  0  0  0  0  0
   -0.2299   -1.1039    0.2486 C   0  0  0  0  0  0  0  0  0  0  0  0
   -1.0148   -0.1122   -0.4712 N   0  0  0  0  0  0  0  0  0  0  0  0
   -2.2636   -0.3916   -1.1376 C   0  0  0  0  0  0  0  0  0  0  0  0
   -2.8548    0.5317   -1.7611 O   0  0  0  0  0  0  0  0  0  0  0  0
   -2.9115   -1.7515   -1.0895 C   0  0  0  0  0  0  0  0  0  0  0  0
   -4.1515   -1.7559   -0.1853 C   0  0  0  0  0  0  0  0  0  0  0  0
   -3.7927   -1.5851    1.2967 C   0  0  0  0  0  0  0  0  0  0  0  0
   -5.0351   -1.6007    2.1458 C   0  0  0  0  0  0  0  0  0  0  0  0
   -5.5385   -2.8140    2.6444 C   0  0  0  0  0  0  0  0  0  0  0  0
   -6.7109   -2.8295    3.4066 C   0  0  0  0  0  0  0  0  0  0  0  0
   -7.3928   -1.6378    3.6675 C   0  0  0  0  0  0  0  0  0  0  0  0
   -6.9057   -0.4287    3.1633 C   0  0  0  0  0  0  0  0  0  0  0  0
   -5.7337   -0.4086    2.4007 C   0  0  0  0  0  0  0  0  0  0  0  0
    0.2870    3.1282   -1.9330 N   0  0  0  0  0  0  0  0  0  0  0  0
   -0.0121    4.1846   -0.9805 C   0  0  0  0  0  0  0  0  0  0  0  0
    0.3177    5.4885   -1.6954 C   0  0  0  0  0  0  0  0  0  0  0  0
    1.1736    5.1035   -2.8994 C   0  0  0  0  0  0  0  0  0  0  0  0
    0.9019    3.6266   -3.1505 C   0  0  0  0  0  0  0  0  0  0  0  0
   -1.2526    1.9164    0.0236 H   0  0  0  0  0  0  0  0  0  0  0  0
    1.5798    1.7106    0.3471 H   0  0  0  0  0  0  0  0  0  0  0  0
    0.3293    1.5451    1.6245 H   0  0  0  0  0  0  0  0  0  0  0  0
    1.0900   -0.5993    1.9013 H   0  0  0  0  0  0  0  0  0  0  0  0
    3.5382   -1.2497    1.7259 H   0  0  0  0  0  0  0  0  0  0  0  0
    5.8999   -0.9761    1.7524 H   0  0  0  0  0  0  0  0  0  0  0  0
    8.2546   -1.6244    1.9647 H   0  0  0  0  0  0  0  0  0  0  0  0
    9.4259   -2.7277    0.0847 H   0  0  0  0  0  0  0  0  0  0  0  0
    8.2239   -3.2050   -2.0159 H   0  0  0  0  0  0  0  0  0  0  0  0
    0.0791   -1.9227   -0.4369 H   0  0  0  0  0  0  0  0  0  0  0  0
   -0.8343   -1.5283    1.0778 H   0  0  0  0  0  0  0  0  0  0  0  0
   -3.2270   -2.0213   -2.1204 H   0  0  0  0  0  0  0  0  0  0  0  0
   -2.2022   -2.5382   -0.7612 H   0  0  0  0  0  0  0  0  0  0  0  0
   -4.6779   -2.7265   -0.3190 H   0  0  0  0  0  0  0  0  0  0  0  0
   -4.8479   -0.9479   -0.5019 H   0  0  0  0  0  0  0  0  0  0  0  0
   -3.2519   -0.6257    1.4498 H   0  0  0  0  0  0  0  0  0  0  0  0
   -3.1122   -2.4057    1.6134 H   0  0  0  0  0  0  0  0  0  0  0  0
   -5.0245   -3.7455    2.4417 H   0  0  0  0  0  0  0  0  0  0  0  0
   -7.0927   -3.7661    3.7920 H   0  0  0  0  0  0  0  0  0  0  0  0
   -8.3007   -1.6517    4.2565 H   0  0  0  0  0  0  0  0  0  0  0  0
   -7.4381    0.4928    3.3605 H   0  0  0  0  0  0  0  0  0  0  0  0
   -5.3716    0.5336    2.0080 H   0  0  0  0  0  0  0  0  0  0  0  0
   -1.0870    4.1636   -0.6992 H   0  0  0  0  0  0  0  0  0  0  0  0
    0.6222    4.0664   -0.0759 H   0  0  0  0  0  0  0  0  0  0  0  0
   -0.6215    5.9693   -2.0479 H   0  0  0  0  0  0  0  0  0  0  0  0
    0.8573    6.1923   -1.0250 H   0  0  0  0  0  0  0  0  0  0  0  0
    0.9196    5.7189   -3.7897 H   0  0  0  0  0  0  0  0  0  0  0  0
    2.2481    5.2479   -2.6507 H   0  0  0  0  0  0  0  0  0  0  0  0
    1.8514    3.0857   -3.3561 H   0  0  0  0  0  0  0  0  0  0  0  0
    0.1997    3.4966   -4.0024 H   0  0  0  0  0  0  0  0  0  0  0  0
  1  2  2  0
  2  3  1  0
  3  4  1  0
  4  5  1  0
  5  6  1  0
  6  7  1  0
  7  8  2  0
  8  9  1  0
  9 10  2  0
 10 11  1  0
 11 12  2  0
 12 13  1  0
 13 14  2  0
 14 15  1  0
  8 16  1  0
 16 17  2  0
  5 18  1  0
 18 19  1  0
 19 20  1  0
 20 21  2  0
 20 22  1  0
 22 23  1  0
 23 24  1  0
 24 25  1  0
 25 26  2  0
 26 27  1  0
 27 28  2  0
 28 29  1  0
 29 30  2  0
  2 31  1  0
 31 32  1  0
 32 33  1  0
 33 34  1  0
 34 35  1  0
 19  3  1  0
 30 25  1  0
 35 31  1  0
 17  6  1  0
 14  9  1  0
  3 36  1  1
  4 37  1  0
  4 38  1  0
  5 39  1  1
  7 40  1  0
 10 41  1  0
 11 42  1  0
 12 43  1  0
 13 44  1  0
 18 45  1  0
 18 46  1  0
 22 47  1  0
 22 48  1  0
 23 49  1  0
 23 50  1  0
 24 51  1  0
 24 52  1  0
 26 53  1  0
 27 54  1  0
 28 55  1  0
 29 56  1  0
 30 57  1  0
 32 58  1  0
 32 59  1  0
 33 60  1  0
 33 61  1  0
 34 62  1  0
 34 63  1  0
 35 64  1  0
 35 65  1  0
M  END
$$$$
