
     RDKit          3D

 54 57  0  0  0  0  0  0  0  0999 V2000
    5.5716   -1.4802    2.3504 C   0  0  0  0  0  0  0  0  0  0  0  0
    4.1914   -1.6568    1.8070 C   0  0  0  0  0  0  0  0  0  0  0  0
    3.4758   -2.6081    2.2228 O   0  0  0  0  0  0  0  0  0  0  0  0
    3.6749   -0.7227    0.8487 N   0  0  0  0  0  0  0  0  0  0  0  0
    2.3325   -0.8536    0.2735 C   0  0  2  0  0  0  0  0  0  0  0  0
    2.3161   -1.9678   -0.7834 C   0  0  0  0  0  0  0  0  0  0  0  0
    0.9207   -2.1086   -1.3952 C   0  0  0  0  0  0  0  0  0  0  0  0
    0.4324   -0.7826   -1.9849 C   0  0  0  0  0  0  0  0  0  0  0  0
    0.5914    0.3248   -1.0310 N   0  0  0  0  0  0  0  0  0  0  0  0
   -0.1255    1.5329   -1.3243 C   0  0  0  0  0  0  0  0  0  0  0  0
    0.2023    2.2842   -2.4744 C   0  0  0  0  0  0  0  0  0  0  0  0
   -0.5150    3.4580   -2.7860 C   0  0  0  0  0  0  0  0  0  0  0  0
   -1.5348    3.8804   -1.9846 N   0  0  0  0  0  0  0  0  0  0  0  0
   -1.8486    3.1542   -0.8839 C   0  0  0  0  0  0  0  0  0  0  0  0
   -1.1777    2.0133   -0.5265 C   0  0  0  0  0  0  0  0  0  0  0  0
   -1.7088    1.5487    0.6330 N   0  0  0  0  0  0  0  0  0  0  0  0
   -1.2646    0.4496    1.4949 C   0  0  0  0  0  0  0  0  0  0  0  0
   -1.6926   -0.9446    1.0584 C   0  0  0  0  0  0  0  0  0  0  0  0
   -1.0931   -2.0087    1.7617 C   0  0  0  0  0  0  0  0  0  0  0  0
   -1.4264   -3.3356    1.4889 C   0  0  0  0  0  0  0  0  0  0  0  0
   -2.3729   -3.6296    0.5120 C   0  0  0  0  0  0  0  0  0  0  0  0
   -3.0031   -2.5972   -0.1810 C   0  0  0  0  0  0  0  0  0  0  0  0
   -2.6905   -1.2553    0.0887 C   0  0  0  0  0  0  0  0  0  0  0  0
   -3.4364   -0.2600   -0.6399 C   0  0  0  0  0  0  0  0  0  0  0  0
   -4.0457    0.5247   -1.2340 N   0  0  0  0  0  0  0  0  0  0  0  0
   -2.6803    2.4532    0.9370 C   0  0  0  0  0  0  0  0  0  0  0  0
   -3.3841    2.3941    1.9819 O   0  0  0  0  0  0  0  0  0  0  0  0
   -2.8073    3.4344    0.0129 N   0  0  0  0  0  0  0  0  0  0  0  0
   -3.6699    4.6102    0.0636 C   0  0  0  0  0  0  0  0  0  0  0  0
    1.8885    0.4748   -0.3599 C   0  0  0  0  0  0  0  0  0  0  0  0
    6.2810   -1.2906    1.5179 H   0  0  0  0  0  0  0  0  0  0  0  0
    5.8959   -2.3925    2.8949 H   0  0  0  0  0  0  0  0  0  0  0  0
    5.5864   -0.6168    3.0474 H   0  0  0  0  0  0  0  0  0  0  0  0
    4.2721    0.0947    0.5860 H   0  0  0  0  0  0  0  0  0  0  0  0
    1.6164   -1.1064    1.0850 H   0  0  0  0  0  0  0  0  0  0  0  0
    3.0541   -1.7416   -1.5848 H   0  0  0  0  0  0  0  0  0  0  0  0
    2.6011   -2.9356   -0.3181 H   0  0  0  0  0  0  0  0  0  0  0  0
    0.9456   -2.8789   -2.1958 H   0  0  0  0  0  0  0  0  0  0  0  0
    0.2103   -2.4549   -0.6210 H   0  0  0  0  0  0  0  0  0  0  0  0
    1.0127   -0.5609   -2.9072 H   0  0  0  0  0  0  0  0  0  0  0  0
   -0.6382   -0.8898   -2.2666 H   0  0  0  0  0  0  0  0  0  0  0  0
    1.0072    1.9642   -3.1236 H   0  0  0  0  0  0  0  0  0  0  0  0
   -0.2563    4.0287   -3.6678 H   0  0  0  0  0  0  0  0  0  0  0  0
   -0.1613    0.4922    1.5848 H   0  0  0  0  0  0  0  0  0  0  0  0
   -1.6492    0.6098    2.5254 H   0  0  0  0  0  0  0  0  0  0  0  0
   -0.3566   -1.8091    2.5310 H   0  0  0  0  0  0  0  0  0  0  0  0
   -0.9457   -4.1372    2.0346 H   0  0  0  0  0  0  0  0  0  0  0  0
   -2.6271   -4.6597    0.2979 H   0  0  0  0  0  0  0  0  0  0  0  0
   -3.7506   -2.8479   -0.9250 H   0  0  0  0  0  0  0  0  0  0  0  0
   -4.6232    4.3632    0.5768 H   0  0  0  0  0  0  0  0  0  0  0  0
   -3.9046    4.9574   -0.9648 H   0  0  0  0  0  0  0  0  0  0  0  0
   -3.1561    5.4240    0.6166 H   0  0  0  0  0  0  0  0  0  0  0  0
    2.6445    0.8106   -1.1041 H   0  0  0  0  0  0  0  0  0  0  0  0
    1.8210    1.2510    0.4340 H   0  0  0  0  0  0  0  0  0  0  0  0
  1  2  1  0
  2  3  2  0
  2  4  1  0
  4  5  1  0
  5  6  1  0
  6  7  1  0
  7  8  1  0
  8  9  1  0
  9 10  1  0
 10 11  2  0
 11 12  1  0
 12 13  2  0
 13 14  1  0
 14 15  2  0
 15 16  1  0
 16 17  1  0
 17 18  1  0
 18 19  2  0
 19 20  1  0
 20 21  2  0
 21 22  1  0
 22 23  2  0
 23 24  1  0
 24 25  3  0
 16 26  1  0
 26 27  2  0
 26 28  1  0
 28 29  1  0
  9 30  1  0
 30  5  1  0
 15 10  1  0
 23 18  1  0
 28 14  1  0
  1 31  1  0
  1 32  1  0
  1 33  1  0
  4 34  1  0
  5 35  1  1
  6 36  1  0
  6 37  1  0
  7 38  1  0
  7 39  1  0
  8 40  1  0
  8 41  1  0
 11 42  1  0
 12 43  1  0
 17 44  1  0
 17 45  1  0
 19 46  1  0
 20 47  1  0
 21 48  1  0
 22 49  1  0
 29 50  1  0
 29 51  1  0
 29 52  1  0
 30 53  1  0
 30 54  1  0
M  END
$$$$
