
     RDKit          3D

 47 49  0  0  0  0  0  0  0  0999 V2000
   -6.0478   -0.3544   -1.9198 C   0  0  0  0  0  0  0  0  0  0  0  0
   -5.3108   -0.2986   -0.6622 N   0  0  0  0  0  0  0  0  0  0  0  0
   -5.8230   -0.0930    0.5706 C   0  0  0  0  0  0  0  0  0  0  0  0
   -4.8673    0.0298    1.5216 N   0  0  0  0  0  0  0  0  0  0  0  0
   -3.7143   -0.1059    0.8345 C   0  0  0  0  0  0  0  0  0  0  0  0
   -3.9790   -0.3123   -0.4900 C   0  0  0  0  0  0  0  0  0  0  0  0
   -2.9294   -0.3295   -1.5532 C   0  0  0  0  0  0  0  0  0  0  0  0
   -1.5696   -0.7033   -0.9425 C   0  0  0  0  0  0  0  0  0  0  0  0
   -1.3224    0.0340    0.3163 N   0  0  0  0  0  0  0  0  0  0  0  0
   -0.0442    0.6571    0.5691 C   0  0  0  0  0  0  0  0  0  0  0  0
    0.0104    1.6922    1.2876 O   0  0  0  0  0  0  0  0  0  0  0  0
    1.2482    0.0622    0.0691 C   0  0  0  0  0  0  0  0  0  0  0  0
    2.0212    1.0447   -0.8356 C   0  0  2  0  0  0  0  0  0  0  0  0
    1.1986    1.4156   -1.9907 N   0  0  0  0  0  0  0  0  0  0  0  0
    3.3687    0.4484   -1.3053 C   0  0  0  0  0  0  0  0  0  0  0  0
    4.3399    0.2662   -0.1633 C   0  0  0  0  0  0  0  0  0  0  0  0
    5.0289    1.3786    0.3495 C   0  0  0  0  0  0  0  0  0  0  0  0
    5.9146    1.2298    1.4211 C   0  0  0  0  0  0  0  0  0  0  0  0
    6.5749    2.3101    1.9069 F   0  0  0  0  0  0  0  0  0  0  0  0
    6.1168   -0.0300    1.9922 C   0  0  0  0  0  0  0  0  0  0  0  0
    6.9744   -0.1755    3.0325 F   0  0  0  0  0  0  0  0  0  0  0  0
    5.4323   -1.1413    1.4929 C   0  0  0  0  0  0  0  0  0  0  0  0
    4.5452   -0.9988    0.4208 C   0  0  0  0  0  0  0  0  0  0  0  0
    3.8838   -2.0911   -0.0391 F   0  0  0  0  0  0  0  0  0  0  0  0
   -2.3285    0.0040    1.4055 C   0  0  0  0  0  0  0  0  0  0  0  0
   -2.0433   -1.1556    2.3751 C   0  0  0  0  0  0  0  0  0  0  0  0
   -0.7631   -1.0420    2.8866 F   0  0  0  0  0  0  0  0  0  0  0  0
   -2.1601   -2.3721    1.7258 F   0  0  0  0  0  0  0  0  0  0  0  0
   -2.9389   -1.1225    3.4296 F   0  0  0  0  0  0  0  0  0  0  0  0
   -5.6864   -1.2069   -2.5322 H   0  0  0  0  0  0  0  0  0  0  0  0
   -5.8984    0.5917   -2.4810 H   0  0  0  0  0  0  0  0  0  0  0  0
   -7.1327   -0.4942   -1.7266 H   0  0  0  0  0  0  0  0  0  0  0  0
   -6.8820   -0.0075    0.7776 H   0  0  0  0  0  0  0  0  0  0  0  0
   -3.1963   -1.0621   -2.3439 H   0  0  0  0  0  0  0  0  0  0  0  0
   -2.8662    0.6825   -2.0073 H   0  0  0  0  0  0  0  0  0  0  0  0
   -0.7939   -0.4768   -1.7009 H   0  0  0  0  0  0  0  0  0  0  0  0
   -1.5388   -1.7952   -0.7401 H   0  0  0  0  0  0  0  0  0  0  0  0
    1.8628   -0.1791    0.9619 H   0  0  0  0  0  0  0  0  0  0  0  0
    1.0743   -0.8962   -0.4625 H   0  0  0  0  0  0  0  0  0  0  0  0
    2.2317    1.9684   -0.2498 H   0  0  0  0  0  0  0  0  0  0  0  0
    1.1445    0.6074   -2.6530 H   0  0  0  0  0  0  0  0  0  0  0  0
    1.6684    2.2006   -2.4981 H   0  0  0  0  0  0  0  0  0  0  0  0
    3.8301    1.1321   -2.0513 H   0  0  0  0  0  0  0  0  0  0  0  0
    3.1938   -0.5152   -1.8316 H   0  0  0  0  0  0  0  0  0  0  0  0
    4.8770    2.3607   -0.0813 H   0  0  0  0  0  0  0  0  0  0  0  0
    5.5872   -2.1153    1.9392 H   0  0  0  0  0  0  0  0  0  0  0  0
   -2.2913    0.9581    1.9751 H   0  0  0  0  0  0  0  0  0  0  0  0
  1  2  1  0
  2  3  1  0
  3  4  2  0
  4  5  1  0
  5  6  2  0
  6  7  1  0
  7  8  1  0
  8  9  1  0
  9 10  1  0
 10 11  2  0
 10 12  1  0
 12 13  1  0
 13 14  1  0
 13 15  1  0
 15 16  1  0
 16 17  2  0
 17 18  1  0
 18 19  1  0
 18 20  2  0
 20 21  1  0
 20 22  1  0
 22 23  2  0
 23 24  1  0
  9 25  1  0
 25 26  1  0
 26 27  1  0
 26 28  1  0
 26 29  1  0
  6  2  1  0
 23 16  1  0
 25  5  1  0
  1 30  1  0
  1 31  1  0
  1 32  1  0
  3 33  1  0
  7 34  1  0
  7 35  1  0
  8 36  1  0
  8 37  1  0
 12 38  1  0
 12 39  1  0
 13 40  1  1
 14 41  1  0
 14 42  1  0
 15 43  1  0
 15 44  1  0
 17 45  1  0
 22 46  1  0
 25 47  1  0
M  END
$$$$
