
     RDKit          3D

 45 47  0  0  0  0  0  0  0  0999 V2000
   -3.5862   -2.6723   -2.1129 N   0  0  0  0  0  0  0  0  0  0  0  0
   -3.1661   -2.3786   -1.0754 C   0  0  0  0  0  0  0  0  0  0  0  0
   -2.6314   -2.0038    0.2437 C   0  0  2  0  0  0  0  0  0  0  0  0
   -3.7382   -1.4956    1.1650 C   0  0  0  0  0  0  0  0  0  0  0  0
   -3.6161    0.0366    1.1851 C   0  0  2  0  0  0  0  0  0  0  0  0
   -4.6327    0.7422    0.2743 C   0  0  0  0  0  0  0  0  0  0  0  0
   -3.8653    1.2047   -0.9512 C   0  0  0  0  0  0  0  0  0  0  0  0
   -2.4336    1.3825   -0.4856 C   0  0  0  0  0  0  0  0  0  0  0  0
   -2.2274    0.3593    0.6320 C   0  0  2  0  0  0  0  0  0  0  0  0
   -1.6975   -0.8961    0.1047 N   0  0  0  0  0  0  0  0  0  0  0  0
   -0.3505   -1.0832   -0.3803 C   0  0  0  0  0  0  0  0  0  0  0  0
   -0.0437   -2.1616   -0.9577 O   0  0  0  0  0  0  0  0  0  0  0  0
    0.7303   -0.0540   -0.1696 C   0  0  0  0  0  0  0  0  0  0  0  0
    1.6657   -0.4586    0.9876 C   0  0  2  0  0  0  0  0  0  0  0  0
    0.8946   -0.5973    2.2267 N   0  0  0  0  0  0  0  0  0  0  0  0
    2.8103    0.5633    1.1796 C   0  0  0  0  0  0  0  0  0  0  0  0
    3.7634    0.5759    0.0108 C   0  0  0  0  0  0  0  0  0  0  0  0
    3.6899    1.5909   -0.9584 C   0  0  0  0  0  0  0  0  0  0  0  0
    4.5612    1.5850   -2.0521 C   0  0  0  0  0  0  0  0  0  0  0  0
    5.5088    0.5664   -2.1879 C   0  0  0  0  0  0  0  0  0  0  0  0
    6.3520    0.5619   -3.2495 F   0  0  0  0  0  0  0  0  0  0  0  0
    5.5851   -0.4491   -1.2303 C   0  0  0  0  0  0  0  0  0  0  0  0
    4.7153   -0.4471   -0.1354 C   0  0  0  0  0  0  0  0  0  0  0  0
   -2.1268   -2.8825    0.7022 H   0  0  0  0  0  0  0  0  0  0  0  0
   -4.7502   -1.8540    0.8724 H   0  0  0  0  0  0  0  0  0  0  0  0
   -3.5433   -1.8760    2.1922 H   0  0  0  0  0  0  0  0  0  0  0  0
   -3.7231    0.4130    2.2276 H   0  0  0  0  0  0  0  0  0  0  0  0
   -5.4900    0.0977   -0.0165 H   0  0  0  0  0  0  0  0  0  0  0  0
   -5.0373    1.6335    0.8031 H   0  0  0  0  0  0  0  0  0  0  0  0
   -4.2800    2.1523   -1.3582 H   0  0  0  0  0  0  0  0  0  0  0  0
   -3.9072    0.4195   -1.7376 H   0  0  0  0  0  0  0  0  0  0  0  0
   -2.3060    2.4070   -0.0717 H   0  0  0  0  0  0  0  0  0  0  0  0
   -1.7233    1.2466   -1.3295 H   0  0  0  0  0  0  0  0  0  0  0  0
   -1.5687    0.7540    1.4352 H   0  0  0  0  0  0  0  0  0  0  0  0
    0.3064    0.9517    0.0237 H   0  0  0  0  0  0  0  0  0  0  0  0
    1.3129    0.0204   -1.1124 H   0  0  0  0  0  0  0  0  0  0  0  0
    2.1138   -1.4494    0.7456 H   0  0  0  0  0  0  0  0  0  0  0  0
    0.5989    0.3494    2.5599 H   0  0  0  0  0  0  0  0  0  0  0  0
    1.5136   -1.0078    2.9633 H   0  0  0  0  0  0  0  0  0  0  0  0
    3.3834    0.3048    2.0968 H   0  0  0  0  0  0  0  0  0  0  0  0
    2.3866    1.5785    1.3456 H   0  0  0  0  0  0  0  0  0  0  0  0
    2.9554    2.3819   -0.8705 H   0  0  0  0  0  0  0  0  0  0  0  0
    4.4992    2.3695   -2.7952 H   0  0  0  0  0  0  0  0  0  0  0  0
    6.3167   -1.2397   -1.3363 H   0  0  0  0  0  0  0  0  0  0  0  0
    4.7812   -1.2420    0.5971 H   0  0  0  0  0  0  0  0  0  0  0  0
  1  2  3  0
  2  3  1  0
  3  4  1  0
  4  5  1  0
  5  6  1  0
  6  7  1  0
  7  8  1  0
  8  9  1  0
  9 10  1  0
 10 11  1  0
 11 12  2  0
 11 13  1  0
 13 14  1  0
 14 15  1  0
 14 16  1  0
 16 17  1  0
 17 18  2  0
 18 19  1  0
 19 20  2  0
 20 21  1  0
 20 22  1  0
 22 23  2  0
 10  3  1  0
 23 17  1  0
  9  5  1  0
  3 24  1  1
  4 25  1  0
  4 26  1  0
  5 27  1  1
  6 28  1  0
  6 29  1  0
  7 30  1  0
  7 31  1  0
  8 32  1  0
  8 33  1  0
  9 34  1  1
 13 35  1  0
 13 36  1  0
 14 37  1  6
 15 38  1  0
 15 39  1  0
 16 40  1  0
 16 41  1  0
 18 42  1  0
 19 43  1  0
 22 44  1  0
 23 45  1  0
M  END
$$$$
