
     RDKit          3D

 52 56  0  0  0  0  0  0  0  0999 V2000
    2.2108    1.6603   -2.4065 O   0  0  0  0  0  0  0  0  0  0  0  0
    1.4905    0.6287   -2.3201 C   0  0  0  0  0  0  0  0  0  0  0  0
    2.1132   -0.6414   -1.9066 C   0  0  0  0  0  0  0  0  0  0  0  0
    3.4252   -0.7386   -1.5744 N   0  0  0  0  0  0  0  0  0  0  0  0
    3.7493   -2.0073   -1.2163 C   0  0  0  0  0  0  0  0  0  0  0  0
    5.0252   -2.4144   -0.8224 C   0  0  0  0  0  0  0  0  0  0  0  0
    5.2264   -3.7614   -0.4736 C   0  0  0  0  0  0  0  0  0  0  0  0
    4.1575   -4.6790   -0.5220 C   0  0  0  0  0  0  0  0  0  0  0  0
    2.8785   -4.2577   -0.9196 C   0  0  0  0  0  0  0  0  0  0  0  0
    2.7067   -2.9186   -1.2601 C   0  0  0  0  0  0  0  0  0  0  0  0
    1.3140   -2.1332   -1.7638 S   0  0  0  0  0  0  0  0  0  0  0  0
    0.0220    0.7211   -2.6677 C   0  0  2  0  0  0  0  0  0  0  0  0
   -0.1692    0.8931   -4.1755 C   0  0  0  0  0  0  0  0  0  0  0  0
   -0.3938    2.3861   -4.3936 C   0  0  0  0  0  0  0  0  0  0  0  0
   -0.9028    2.9239   -3.0626 C   0  0  0  0  0  0  0  0  0  0  0  0
   -0.5665    1.9145   -2.0705 N   0  0  0  0  0  0  0  0  0  0  0  0
   -0.9140    2.0614   -0.6781 C   0  0  0  0  0  0  0  0  0  0  0  0
   -1.4864    3.1201   -0.2991 O   0  0  0  0  0  0  0  0  0  0  0  0
   -0.6840    0.9415    0.3204 C   0  0  2  0  0  0  0  0  0  0  0  0
   -1.8847    0.0079    0.4214 C   0  0  0  0  0  0  0  0  0  0  0  0
   -1.8243   -0.5413    1.8485 C   0  0  2  0  0  0  0  0  0  0  0  0
   -3.1921   -0.4878    2.5665 C   0  0  0  0  0  0  0  0  0  0  0  0
   -3.5082    0.9212    3.0811 C   0  0  0  0  0  0  0  0  0  0  0  0
   -2.4599    1.4280    4.0902 C   0  0  0  0  0  0  0  0  0  0  0  0
   -1.0902    0.7283    3.9806 C   0  0  0  0  0  0  0  0  0  0  0  0
   -0.7266    0.2921    2.5446 C   0  0  2  0  0  0  0  0  0  0  0  0
   -0.4095    1.4307    1.6747 N   0  0  0  0  0  0  0  0  0  0  0  0
    5.8450   -1.7085   -0.7850 H   0  0  0  0  0  0  0  0  0  0  0  0
    6.2085   -4.0958   -0.1656 H   0  0  0  0  0  0  0  0  0  0  0  0
    4.3232   -5.7136   -0.2511 H   0  0  0  0  0  0  0  0  0  0  0  0
    2.0511   -4.9542   -0.9595 H   0  0  0  0  0  0  0  0  0  0  0  0
   -0.5368   -0.1771   -2.3322 H   0  0  0  0  0  0  0  0  0  0  0  0
    0.6942    0.5204   -4.7704 H   0  0  0  0  0  0  0  0  0  0  0  0
   -1.0801    0.3401   -4.4952 H   0  0  0  0  0  0  0  0  0  0  0  0
    0.5738    2.8724   -4.6475 H   0  0  0  0  0  0  0  0  0  0  0  0
   -1.1224    2.5710   -5.2126 H   0  0  0  0  0  0  0  0  0  0  0  0
   -2.0057    3.0595   -3.0981 H   0  0  0  0  0  0  0  0  0  0  0  0
   -0.4104    3.8892   -2.8147 H   0  0  0  0  0  0  0  0  0  0  0  0
    0.1979    0.3464    0.0066 H   0  0  0  0  0  0  0  0  0  0  0  0
   -2.8285    0.5672    0.2369 H   0  0  0  0  0  0  0  0  0  0  0  0
   -1.8122   -0.8135   -0.3244 H   0  0  0  0  0  0  0  0  0  0  0  0
   -1.5000   -1.6059    1.8069 H   0  0  0  0  0  0  0  0  0  0  0  0
   -3.1807   -1.1906    3.4285 H   0  0  0  0  0  0  0  0  0  0  0  0
   -3.9983   -0.8271    1.8802 H   0  0  0  0  0  0  0  0  0  0  0  0
   -4.5105    0.9179    3.5617 H   0  0  0  0  0  0  0  0  0  0  0  0
   -3.5627    1.6243    2.2224 H   0  0  0  0  0  0  0  0  0  0  0  0
   -2.3278    2.5233    3.9518 H   0  0  0  0  0  0  0  0  0  0  0  0
   -2.8456    1.2809    5.1227 H   0  0  0  0  0  0  0  0  0  0  0  0
   -0.2977    1.3971    4.3811 H   0  0  0  0  0  0  0  0  0  0  0  0
   -1.1049   -0.1794    4.6236 H   0  0  0  0  0  0  0  0  0  0  0  0
    0.1915   -0.3346    2.6185 H   0  0  0  0  0  0  0  0  0  0  0  0
   -1.0680    2.2124    1.8977 H   0  0  0  0  0  0  0  0  0  0  0  0
  1  2  2  0
  2  3  1  0
  3  4  2  0
  4  5  1  0
  5  6  2  0
  6  7  1  0
  7  8  2  0
  8  9  1  0
  9 10  2  0
 10 11  1  0
  2 12  1  0
 12 13  1  0
 13 14  1  0
 14 15  1  0
 15 16  1  0
 16 17  1  0
 17 18  2  0
 17 19  1  0
 19 20  1  0
 20 21  1  0
 21 22  1  0
 22 23  1  0
 23 24  1  0
 24 25  1  0
 25 26  1  0
 26 27  1  0
 11  3  1  0
 16 12  1  0
 27 19  1  0
 10  5  1  0
 26 21  1  0
  6 28  1  0
  7 29  1  0
  8 30  1  0
  9 31  1  0
 12 32  1  1
 13 33  1  0
 13 34  1  0
 14 35  1  0
 14 36  1  0
 15 37  1  0
 15 38  1  0
 19 39  1  6
 20 40  1  0
 20 41  1  0
 21 42  1  6
 22 43  1  0
 22 44  1  0
 23 45  1  0
 23 46  1  0
 24 47  1  0
 24 48  1  0
 25 49  1  0
 25 50  1  0
 26 51  1  1
 27 52  1  0
M  END
$$$$
