
     RDKit          3D

 35 35  0  0  0  0  0  0  0  0999 V2000
   -2.5042   -0.1391    1.4241 C   0  0  0  0  0  0  0  0  0  0  0  0
   -2.4551   -0.7477    0.0049 C   0  0  0  0  0  0  0  0  0  0  0  0
   -3.5953   -0.1623   -0.8589 C   0  0  0  0  0  0  0  0  0  0  0  0
   -2.6729   -2.2694    0.1358 C   0  0  0  0  0  0  0  0  0  0  0  0
   -1.1249   -0.5323   -0.6187 N   0  0  0  0  0  0  0  0  0  0  0  0
   -0.7791    0.8701   -0.8985 C   0  0  0  0  0  0  0  0  0  0  0  0
    0.6606    0.9626   -1.3218 C   0  0  0  0  0  0  0  0  0  0  0  0
    0.9158    1.2188   -2.5300 O   0  0  0  0  0  0  0  0  0  0  0  0
    1.7474    0.7520   -0.3926 N   0  0  0  0  0  0  0  0  0  0  0  0
    3.1452    0.9493   -0.7625 C   0  0  2  0  0  0  0  0  0  0  0  0
    3.5616   -0.0402   -1.7705 C   0  0  0  0  0  0  0  0  0  0  0  0
    3.8880   -0.8180   -2.5628 N   0  0  0  0  0  0  0  0  0  0  0  0
    3.9475    0.7894    0.5315 C   0  0  0  0  0  0  0  0  0  0  0  0
    2.9295    0.9186    1.6594 C   0  0  0  0  0  0  0  0  0  0  0  0
    1.5833    0.5440    1.0421 C   0  0  2  0  0  0  0  0  0  0  0  0
    1.2613   -0.8670    1.3095 C   0  0  0  0  0  0  0  0  0  0  0  0
    1.0093   -1.9767    1.5195 N   0  0  0  0  0  0  0  0  0  0  0  0
   -3.4151   -0.4767    1.9644 H   0  0  0  0  0  0  0  0  0  0  0  0
   -2.5421    0.9691    1.3960 H   0  0  0  0  0  0  0  0  0  0  0  0
   -1.6142   -0.4511    2.0107 H   0  0  0  0  0  0  0  0  0  0  0  0
   -3.5205   -0.5321   -1.9040 H   0  0  0  0  0  0  0  0  0  0  0  0
   -4.5858   -0.4595   -0.4513 H   0  0  0  0  0  0  0  0  0  0  0  0
   -3.5624    0.9473   -0.8707 H   0  0  0  0  0  0  0  0  0  0  0  0
   -3.6457   -2.4949    0.6246 H   0  0  0  0  0  0  0  0  0  0  0  0
   -2.6699   -2.7531   -0.8648 H   0  0  0  0  0  0  0  0  0  0  0  0
   -1.8610   -2.7247    0.7430 H   0  0  0  0  0  0  0  0  0  0  0  0
   -1.0873   -1.0516   -1.5287 H   0  0  0  0  0  0  0  0  0  0  0  0
   -0.9256    1.5158   -0.0127 H   0  0  0  0  0  0  0  0  0  0  0  0
   -1.4194    1.2676   -1.7165 H   0  0  0  0  0  0  0  0  0  0  0  0
    3.2810    1.9752   -1.1693 H   0  0  0  0  0  0  0  0  0  0  0  0
    4.7373    1.5675    0.6145 H   0  0  0  0  0  0  0  0  0  0  0  0
    4.4252   -0.2148    0.5972 H   0  0  0  0  0  0  0  0  0  0  0  0
    2.8941    1.9794    1.9930 H   0  0  0  0  0  0  0  0  0  0  0  0
    3.2040    0.2859    2.5332 H   0  0  0  0  0  0  0  0  0  0  0  0
    0.7894    1.1985    1.4590 H   0  0  0  0  0  0  0  0  0  0  0  0
  1  2  1  0
  2  3  1  0
  2  4  1  0
  2  5  1  0
  5  6  1  0
  6  7  1  0
  7  8  2  0
  7  9  1  0
  9 10  1  0
 10 11  1  0
 11 12  3  0
 10 13  1  0
 13 14  1  0
 14 15  1  0
 15 16  1  0
 16 17  3  0
 15  9  1  0
  1 18  1  0
  1 19  1  0
  1 20  1  0
  3 21  1  0
  3 22  1  0
  3 23  1  0
  4 24  1  0
  4 25  1  0
  4 26  1  0
  5 27  1  0
  6 28  1  0
  6 29  1  0
 10 30  1  6
 13 31  1  0
 13 32  1  0
 14 33  1  0
 14 34  1  0
 15 35  1  1
M  END
$$$$
