
     RDKit          3D

 47 48  0  0  0  0  0  0  0  0999 V2000
    0.1252   -1.0037    1.0458 C   0  0  0  0  0  0  0  0  0  0  0  0
    0.2176    0.0616   -0.0730 C   0  0  0  0  0  0  0  0  0  0  0  0
    1.0802    1.2298    0.4590 C   0  0  0  0  0  0  0  0  0  0  0  0
    0.8658   -0.5391   -1.3599 C   0  0  0  0  0  0  0  0  0  0  0  0
    2.2912   -0.9865   -1.1689 C   0  0  0  0  0  0  0  0  0  0  0  0
    2.5171   -2.1487   -0.7356 O   0  0  0  0  0  0  0  0  0  0  0  0
    3.3738   -0.0875   -1.4652 N   0  0  0  0  0  0  0  0  0  0  0  0
    4.7623   -0.3840   -1.2351 C   0  0  0  0  0  0  0  0  0  0  0  0
    5.7422    0.5633   -1.5676 C   0  0  0  0  0  0  0  0  0  0  0  0
    7.0883    0.2714   -1.3375 C   0  0  0  0  0  0  0  0  0  0  0  0
    7.4474   -0.9562   -0.7795 C   0  0  0  0  0  0  0  0  0  0  0  0
    6.4487   -1.8772   -0.4584 C   0  0  0  0  0  0  0  0  0  0  0  0
    5.1434   -1.5742   -0.6901 N   0  0  0  0  0  0  0  0  0  0  0  0
   -1.1303    0.6150   -0.3634 N   0  0  0  0  0  0  0  0  0  0  0  0
   -2.0890   -0.3246   -0.9671 C   0  0  0  0  0  0  0  0  0  0  0  0
   -3.4714    0.2580   -0.8982 C   0  0  0  0  0  0  0  0  0  0  0  0
   -4.0722    0.5295   -1.9732 O   0  0  0  0  0  0  0  0  0  0  0  0
   -4.1116    0.5232    0.3664 N   0  0  0  0  0  0  0  0  0  0  0  0
   -3.5977    0.0574    1.6453 C   0  0  0  0  0  0  0  0  0  0  0  0
   -4.7423    0.2305    2.6350 C   0  0  1  0  0  0  0  0  0  0  0  0
   -4.2799    0.6993    3.8534 F   0  0  0  0  0  0  0  0  0  0  0  0
   -5.7047    1.2254    1.9912 C   0  0  0  0  0  0  0  0  0  0  0  0
   -5.4133    1.1667    0.4894 C   0  0  1  0  0  0  0  0  0  0  0  0
   -5.3874    2.5175   -0.0979 C   0  0  0  0  0  0  0  0  0  0  0  0
   -5.3666    3.5783   -0.5598 N   0  0  0  0  0  0  0  0  0  0  0  0
   -0.5097   -0.6349    1.8792 H   0  0  0  0  0  0  0  0  0  0  0  0
   -0.2977   -1.9578    0.6700 H   0  0  0  0  0  0  0  0  0  0  0  0
    1.1300   -1.2365    1.4590 H   0  0  0  0  0  0  0  0  0  0  0  0
    2.0754    0.8806    0.8082 H   0  0  0  0  0  0  0  0  0  0  0  0
    1.2362    1.9928   -0.3337 H   0  0  0  0  0  0  0  0  0  0  0  0
    0.5721    1.7214    1.3168 H   0  0  0  0  0  0  0  0  0  0  0  0
    0.2827   -1.4192   -1.7058 H   0  0  0  0  0  0  0  0  0  0  0  0
    0.8277    0.2110   -2.1795 H   0  0  0  0  0  0  0  0  0  0  0  0
    3.1313    0.8497   -1.8596 H   0  0  0  0  0  0  0  0  0  0  0  0
    5.4655    1.5167   -1.9998 H   0  0  0  0  0  0  0  0  0  0  0  0
    7.8515    0.9957   -1.5911 H   0  0  0  0  0  0  0  0  0  0  0  0
    8.4880   -1.1913   -0.5974 H   0  0  0  0  0  0  0  0  0  0  0  0
    6.7105   -2.8329   -0.0247 H   0  0  0  0  0  0  0  0  0  0  0  0
   -1.0343    1.4274   -1.0192 H   0  0  0  0  0  0  0  0  0  0  0  0
   -1.8257   -0.5106   -2.0320 H   0  0  0  0  0  0  0  0  0  0  0  0
   -2.1005   -1.2986   -0.4416 H   0  0  0  0  0  0  0  0  0  0  0  0
   -2.7229    0.6760    1.9399 H   0  0  0  0  0  0  0  0  0  0  0  0
   -3.3059   -1.0132    1.5883 H   0  0  0  0  0  0  0  0  0  0  0  0
   -5.2592   -0.7430    2.7852 H   0  0  0  0  0  0  0  0  0  0  0  0
   -5.5092    2.2411    2.4054 H   0  0  0  0  0  0  0  0  0  0  0  0
   -6.7612    0.9522    2.2045 H   0  0  0  0  0  0  0  0  0  0  0  0
   -6.1815    0.5510   -0.0271 H   0  0  0  0  0  0  0  0  0  0  0  0
  1  2  1  0
  2  3  1  0
  2  4  1  0
  4  5  1  0
  5  6  2  0
  5  7  1  0
  7  8  1  0
  8  9  2  0
  9 10  1  0
 10 11  2  0
 11 12  1  0
 12 13  2  0
  2 14  1  0
 14 15  1  0
 15 16  1  0
 16 17  2  0
 16 18  1  0
 18 19  1  0
 19 20  1  0
 20 21  1  0
 20 22  1  0
 22 23  1  0
 23 24  1  0
 24 25  3  0
 13  8  1  0
 23 18  1  0
  1 26  1  0
  1 27  1  0
  1 28  1  0
  3 29  1  0
  3 30  1  0
  3 31  1  0
  4 32  1  0
  4 33  1  0
  7 34  1  0
  9 35  1  0
 10 36  1  0
 11 37  1  0
 12 38  1  0
 14 39  1  0
 15 40  1  0
 15 41  1  0
 19 42  1  0
 19 43  1  0
 20 44  1  1
 22 45  1  0
 22 46  1  0
 23 47  1  6
M  END
$$$$
