
     RDKit          3D

 71 75  0  0  0  0  0  0  0  0999 V2000
    7.7192   -0.2067    1.3119 C   0  0  0  0  0  0  0  0  0  0  0  0
    7.7380   -1.4219    0.4444 C   0  0  0  0  0  0  0  0  0  0  0  0
    8.0267   -2.6329    0.8595 O   0  0  0  0  0  0  0  0  0  0  0  0
    7.9101   -3.4100   -0.1933 C   0  0  0  0  0  0  0  0  0  0  0  0
    8.1160   -4.6513   -0.1705 O   0  0  0  0  0  0  0  0  0  0  0  0
    7.5538   -2.7507   -1.2723 O   0  0  0  0  0  0  0  0  0  0  0  0
    7.4340   -1.4970   -0.9031 C   0  0  0  0  0  0  0  0  0  0  0  0
    7.0410   -0.3745   -1.8132 C   0  0  0  0  0  0  0  0  0  0  0  0
    5.9284    0.3377   -1.2774 O   0  0  0  0  0  0  0  0  0  0  0  0
    4.6385   -0.2010   -1.1901 C   0  0  0  0  0  0  0  0  0  0  0  0
    4.3952   -1.3402   -1.6762 O   0  0  0  0  0  0  0  0  0  0  0  0
    3.5650    0.5678   -0.5223 C   0  0  0  0  0  0  0  0  0  0  0  0
    3.8460    1.8124    0.0595 C   0  0  0  0  0  0  0  0  0  0  0  0
    2.8446    2.5486    0.6979 C   0  0  0  0  0  0  0  0  0  0  0  0
    1.5198    2.0606    0.7767 C   0  0  0  0  0  0  0  0  0  0  0  0
    1.2456    0.7941    0.1852 C   0  0  0  0  0  0  0  0  0  0  0  0
    2.2577    0.0627   -0.4545 C   0  0  0  0  0  0  0  0  0  0  0  0
   -0.0576    0.3154    0.2642 C   0  0  0  0  0  0  0  0  0  0  0  0
   -0.5416   -0.8371   -0.2370 N   0  0  0  0  0  0  0  0  0  0  0  0
   -1.8513   -0.7923    0.1110 C   0  0  0  0  0  0  0  0  0  0  0  0
   -2.7722   -1.8360   -0.2351 N   0  0  0  0  0  0  0  0  0  0  0  0
   -2.8266   -2.2896   -1.6312 C   0  0  0  0  0  0  0  0  0  0  0  0
   -3.8414   -3.4250   -1.8173 C   0  0  0  0  0  0  0  0  0  0  0  0
   -5.1184   -3.1252   -1.0275 C   0  0  0  0  0  0  0  0  0  0  0  0
   -4.8513   -2.9922    0.4932 C   0  0  1  0  0  0  0  0  0  0  0  0
   -5.2694   -4.2128    1.1872 N   0  0  0  0  0  0  0  0  0  0  0  0
   -3.3760   -2.6513    0.8254 C   0  0  0  0  0  0  0  0  0  0  0  0
   -2.1992    0.3343    0.7890 N   0  0  0  0  0  0  0  0  0  0  0  0
   -3.5481    0.7697    1.1752 C   0  0  0  0  0  0  0  0  0  0  0  0
   -4.0337    1.9038    0.2959 C   0  0  0  0  0  0  0  0  0  0  0  0
   -3.8644    1.8155   -1.0994 C   0  0  0  0  0  0  0  0  0  0  0  0
   -4.3224    2.8332   -1.9392 C   0  0  0  0  0  0  0  0  0  0  0  0
   -4.1393    2.7392   -3.2793 F   0  0  0  0  0  0  0  0  0  0  0  0
   -4.9730    3.9434   -1.4011 C   0  0  0  0  0  0  0  0  0  0  0  0
   -5.1771    4.0331   -0.0235 C   0  0  0  0  0  0  0  0  0  0  0  0
   -4.7233    3.0190    0.8294 C   0  0  0  0  0  0  0  0  0  0  0  0
   -5.0571    3.1859    2.5508 Cl  0  0  0  0  0  0  0  0  0  0  0  0
   -1.0410    1.0215    0.8798 C   0  0  0  0  0  0  0  0  0  0  0  0
   -0.7792    2.2635    1.4636 C   0  0  0  0  0  0  0  0  0  0  0  0
   -1.7058    2.8947    2.0405 O   0  0  0  0  0  0  0  0  0  0  0  0
    0.5035    2.7761    1.4052 N   0  0  0  0  0  0  0  0  0  0  0  0
    0.7879    4.0901    2.0159 C   0  0  0  0  0  0  0  0  0  0  0  0
    0.6878    0.0000    0.0000 Cl  0  0  0  0  0  0  0  0  0  0  0  0
    6.6687    0.0942    1.5065 H   0  0  0  0  0  0  0  0  0  0  0  0
    8.2200   -0.4246    2.2781 H   0  0  0  0  0  0  0  0  0  0  0  0
    8.2536    0.6258    0.8084 H   0  0  0  0  0  0  0  0  0  0  0  0
    6.7929   -0.7660   -2.8233 H   0  0  0  0  0  0  0  0  0  0  0  0
    7.8991    0.3221   -1.9127 H   0  0  0  0  0  0  0  0  0  0  0  0
    4.8477    2.2226    0.0250 H   0  0  0  0  0  0  0  0  0  0  0  0
    3.1277    3.4996    1.1258 H   0  0  0  0  0  0  0  0  0  0  0  0
    2.0267   -0.8985   -0.8987 H   0  0  0  0  0  0  0  0  0  0  0  0
   -3.1251   -1.4348   -2.2759 H   0  0  0  0  0  0  0  0  0  0  0  0
   -1.8224   -2.6373   -1.9569 H   0  0  0  0  0  0  0  0  0  0  0  0
   -4.0841   -3.5328   -2.8965 H   0  0  0  0  0  0  0  0  0  0  0  0
   -3.4032   -4.3850   -1.4666 H   0  0  0  0  0  0  0  0  0  0  0  0
   -5.5515   -2.1730   -1.4077 H   0  0  0  0  0  0  0  0  0  0  0  0
   -5.8693   -3.9212   -1.2258 H   0  0  0  0  0  0  0  0  0  0  0  0
   -5.4877   -2.1591    0.8660 H   0  0  0  0  0  0  0  0  0  0  0  0
   -5.1241   -4.0819    2.2150 H   0  0  0  0  0  0  0  0  0  0  0  0
   -4.6629   -5.0092    0.8824 H   0  0  0  0  0  0  0  0  0  0  0  0
   -3.3286   -2.1289    1.8060 H   0  0  0  0  0  0  0  0  0  0  0  0
   -2.7782   -3.5832    0.9271 H   0  0  0  0  0  0  0  0  0  0  0  0
   -4.2717   -0.0618    1.0777 H   0  0  0  0  0  0  0  0  0  0  0  0
   -3.5295    1.0472    2.2477 H   0  0  0  0  0  0  0  0  0  0  0  0
   -3.3742    0.9585   -1.5410 H   0  0  0  0  0  0  0  0  0  0  0  0
   -5.3292    4.7313   -2.0522 H   0  0  0  0  0  0  0  0  0  0  0  0
   -5.6973    4.8919    0.3818 H   0  0  0  0  0  0  0  0  0  0  0  0
    1.5463    3.9766    2.8195 H   0  0  0  0  0  0  0  0  0  0  0  0
   -0.1059    4.5596    2.4757 H   0  0  0  0  0  0  0  0  0  0  0  0
    1.1603    4.7939    1.2413 H   0  0  0  0  0  0  0  0  0  0  0  0
   -0.6878    0.0000    0.0000 H   0  0  0  0  0  0  0  0  0  0  0  0
  1  2  1  0
  2  3  1  0
  3  4  1  0
  4  5  2  0
  4  6  1  0
  6  7  1  0
  7  8  1  0
  8  9  1  0
  9 10  1  0
 10 11  2  0
 10 12  1  0
 12 13  2  0
 13 14  1  0
 14 15  2  0
 15 16  1  0
 16 17  2  0
 16 18  1  0
 18 19  1  0
 19 20  2  0
 20 21  1  0
 21 22  1  0
 22 23  1  0
 23 24  1  0
 24 25  1  0
 25 26  1  0
 25 27  1  0
 20 28  1  0
 28 29  1  0
 29 30  1  0
 30 31  2  0
 31 32  1  0
 32 33  1  0
 32 34  2  0
 34 35  1  0
 35 36  2  0
 36 37  1  0
 28 38  1  0
 38 39  1  0
 39 40  2  0
 39 41  1  0
 41 42  1  0
  7  2  2  0
 17 12  1  0
 38 18  2  0
 41 15  1  0
 27 21  1  0
 36 30  1  0
  1 44  1  0
  1 45  1  0
  1 46  1  0
  8 47  1  0
  8 48  1  0
 13 49  1  0
 14 50  1  0
 17 51  1  0
 22 52  1  0
 22 53  1  0
 23 54  1  0
 23 55  1  0
 24 56  1  0
 24 57  1  0
 25 58  1  1
 26 59  1  0
 26 60  1  0
 27 61  1  0
 27 62  1  0
 29 63  1  0
 29 64  1  0
 31 65  1  0
 34 66  1  0
 35 67  1  0
 42 68  1  0
 42 69  1  0
 42 70  1  0
 43 71  1  0
M  END
$$$$
