
     RDKit          3D

 37 40  0  0  0  0  0  0  0  0999 V2000
    0.2120   -2.8878   -1.1245 N   0  0  0  0  0  0  0  0  0  0  0  0
    0.8425   -1.8391   -0.3148 C   0  0  2  0  0  0  0  0  0  0  0  0
   -0.1836   -1.1589    0.6141 C   0  0  0  0  0  0  0  0  0  0  0  0
   -1.1208   -0.2550   -0.1479 C   0  0  0  0  0  0  0  0  0  0  0  0
   -0.6850    0.3416   -1.3475 C   0  0  0  0  0  0  0  0  0  0  0  0
   -1.5264    1.2140   -2.0450 C   0  0  0  0  0  0  0  0  0  0  0  0
   -2.7983    1.5146   -1.5537 C   0  0  0  0  0  0  0  0  0  0  0  0
   -3.2357    0.9465   -0.3507 C   0  0  0  0  0  0  0  0  0  0  0  0
   -4.4976    1.2400    0.1755 C   0  0  0  0  0  0  0  0  0  0  0  0
   -4.8886    0.6611    1.3814 C   0  0  0  0  0  0  0  0  0  0  0  0
   -4.0044   -0.2013    2.0362 C   0  0  0  0  0  0  0  0  0  0  0  0
   -4.3376   -0.7329    3.1275 O   0  0  0  0  0  0  0  0  0  0  0  0
   -2.8103   -0.4655    1.5131 O   0  0  0  0  0  0  0  0  0  0  0  0
   -2.3941    0.0622    0.3622 C   0  0  0  0  0  0  0  0  0  0  0  0
    0.5916    0.0717   -1.8600 O   0  0  0  0  0  0  0  0  0  0  0  0
    1.5365   -0.8059   -1.2350 C   0  0  1  0  0  0  0  0  0  0  0  0
    2.6289   -0.0408   -0.5018 C   0  0  0  0  0  0  0  0  0  0  0  0
    3.9060   -0.6271   -0.4072 C   0  0  0  0  0  0  0  0  0  0  0  0
    4.9390    0.0140    0.2818 C   0  0  0  0  0  0  0  0  0  0  0  0
    6.1627   -0.5656    0.3571 F   0  0  0  0  0  0  0  0  0  0  0  0
    4.7099    1.2464    0.8956 C   0  0  0  0  0  0  0  0  0  0  0  0
    5.7105    1.8695    1.5661 F   0  0  0  0  0  0  0  0  0  0  0  0
    3.4468    1.8360    0.8240 C   0  0  0  0  0  0  0  0  0  0  0  0
    2.4066    1.2013    0.1365 C   0  0  0  0  0  0  0  0  0  0  0  0
    1.1973    1.8105    0.1063 F   0  0  0  0  0  0  0  0  0  0  0  0
   -0.5918   -2.4904   -1.6625 H   0  0  0  0  0  0  0  0  0  0  0  0
   -0.1714   -3.6226   -0.4862 H   0  0  0  0  0  0  0  0  0  0  0  0
    1.6142   -2.3277    0.3221 H   0  0  0  0  0  0  0  0  0  0  0  0
   -0.7540   -1.9420    1.1590 H   0  0  0  0  0  0  0  0  0  0  0  0
    0.3528   -0.5511    1.3738 H   0  0  0  0  0  0  0  0  0  0  0  0
   -1.1897    1.6643   -2.9700 H   0  0  0  0  0  0  0  0  0  0  0  0
   -3.4346    2.1944   -2.1076 H   0  0  0  0  0  0  0  0  0  0  0  0
   -5.1732    1.9124   -0.3396 H   0  0  0  0  0  0  0  0  0  0  0  0
   -5.8626    0.8807    1.8011 H   0  0  0  0  0  0  0  0  0  0  0  0
    2.0301   -1.3679   -2.0591 H   0  0  0  0  0  0  0  0  0  0  0  0
    4.1012   -1.5882   -0.8673 H   0  0  0  0  0  0  0  0  0  0  0  0
    3.2708    2.7888    1.3068 H   0  0  0  0  0  0  0  0  0  0  0  0
  1  2  1  0
  2  3  1  0
  3  4  1  0
  4  5  2  0
  5  6  1  0
  6  7  2  0
  7  8  1  0
  8  9  1  0
  9 10  2  0
 10 11  1  0
 11 12  2  0
 11 13  1  0
 13 14  1  0
  5 15  1  0
 15 16  1  0
 16 17  1  0
 17 18  2  0
 18 19  1  0
 19 20  1  0
 19 21  2  0
 21 22  1  0
 21 23  1  0
 23 24  2  0
 24 25  1  0
 16  2  1  0
 24 17  1  0
 14  4  1  0
 14  8  2  0
  1 26  1  0
  1 27  1  0
  2 28  1  1
  3 29  1  0
  3 30  1  0
  6 31  1  0
  7 32  1  0
  9 33  1  0
 10 34  1  0
 16 35  1  6
 18 36  1  0
 23 37  1  0
M  END
$$$$
