
     RDKit          3D

 70 70  0  0  0  0  0  0  0  0999 V2000
    8.8897    0.6315   -1.9057 C   0  0  0  0  0  0  0  0  0  0  0  0
    7.7967    0.8045   -0.8938 C   0  0  0  0  0  0  0  0  0  0  0  0
    8.0979    1.2728    0.2380 O   0  0  0  0  0  0  0  0  0  0  0  0
    6.3845    0.4412   -1.1909 C   0  0  0  0  0  0  0  0  0  0  0  0
    6.0125   -0.0857   -2.4428 C   0  0  0  0  0  0  0  0  0  0  0  0
    4.6841   -0.4308   -2.7002 C   0  0  0  0  0  0  0  0  0  0  0  0
    3.7068   -0.2484   -1.7213 C   0  0  0  0  0  0  0  0  0  0  0  0
    4.0492    0.2964   -0.4728 C   0  0  0  0  0  0  0  0  0  0  0  0
    3.0661    0.4700    0.5619 N   0  0  0  0  0  0  0  0  0  0  0  0
    1.6871    0.7823    0.3106 C   0  0  0  0  0  0  0  0  0  0  0  0
    1.3359    1.2660   -0.7994 O   0  0  0  0  0  0  0  0  0  0  0  0
    0.6631    0.5927    1.3914 C   0  0  0  0  0  0  0  0  0  0  0  0
   -0.4593   -0.3235    0.9235 C   0  0  0  0  0  0  0  0  0  0  0  0
   -0.2725   -1.7234    0.9029 C   0  0  0  0  0  0  0  0  0  0  0  0
    1.0031   -2.3749    1.3566 C   0  0  0  0  0  0  0  0  0  0  0  0
   -1.2690   -2.5285    0.4633 N   0  0  0  0  0  0  0  0  0  0  0  0
   -2.4726   -2.0735    0.0346 C   0  0  0  0  0  0  0  0  0  0  0  0
   -3.4781   -3.1148   -0.4193 C   0  0  0  0  0  0  0  0  0  0  0  0
   -4.1711   -3.8710    0.7414 C   0  0  0  0  0  0  0  0  0  0  0  0
   -3.1785   -4.6589    1.6088 C   0  0  0  0  0  0  0  0  0  0  0  0
   -5.0341   -2.9482    1.6104 C   0  0  0  0  0  0  0  0  0  0  0  0
   -2.7224   -0.6776    0.0168 C   0  0  0  0  0  0  0  0  0  0  0  0
   -4.0309   -0.1274   -0.5290 C   0  0  0  0  0  0  0  0  0  0  0  0
   -4.0143   -0.1504   -1.9881 N   0  0  0  0  0  0  0  0  0  0  0  0
   -1.6921    0.1999    0.4521 C   0  0  0  0  0  0  0  0  0  0  0  0
   -1.9054    1.6647    0.4189 C   0  0  0  0  0  0  0  0  0  0  0  0
   -1.6274    2.3936   -0.7455 C   0  0  0  0  0  0  0  0  0  0  0  0
   -1.8360    3.7753   -0.7762 C   0  0  0  0  0  0  0  0  0  0  0  0
   -2.3155    4.4439    0.3608 C   0  0  0  0  0  0  0  0  0  0  0  0
   -2.5767    5.9200    0.3149 C   0  0  0  0  0  0  0  0  0  0  0  0
   -2.6143    3.7088    1.5186 C   0  0  0  0  0  0  0  0  0  0  0  0
   -2.4056    2.3270    1.5491 C   0  0  0  0  0  0  0  0  0  0  0  0
    5.3892    0.6199   -0.2101 C   0  0  0  0  0  0  0  0  0  0  0  0
    0.6878    0.0000    0.0000 Cl  0  0  0  0  0  0  0  0  0  0  0  0
    0.6878    0.0000    0.0000 Cl  0  0  0  0  0  0  0  0  0  0  0  0
    8.9745   -0.4383   -2.1899 H   0  0  0  0  0  0  0  0  0  0  0  0
    9.8644    0.9616   -1.4873 H   0  0  0  0  0  0  0  0  0  0  0  0
    8.6699    1.2423   -2.8063 H   0  0  0  0  0  0  0  0  0  0  0  0
    6.7427   -0.2419   -3.2252 H   0  0  0  0  0  0  0  0  0  0  0  0
    4.4125   -0.8499   -3.6606 H   0  0  0  0  0  0  0  0  0  0  0  0
    2.6916   -0.5567   -1.9330 H   0  0  0  0  0  0  0  0  0  0  0  0
    3.3835    0.4155    1.5562 H   0  0  0  0  0  0  0  0  0  0  0  0
    1.1380    0.1710    2.3011 H   0  0  0  0  0  0  0  0  0  0  0  0
    0.2913    1.5887    1.7040 H   0  0  0  0  0  0  0  0  0  0  0  0
    1.1837   -2.1593    2.4300 H   0  0  0  0  0  0  0  0  0  0  0  0
    1.8568   -2.0152    0.7474 H   0  0  0  0  0  0  0  0  0  0  0  0
    0.9399   -3.4775    1.2362 H   0  0  0  0  0  0  0  0  0  0  0  0
   -2.9397   -3.8579   -1.0474 H   0  0  0  0  0  0  0  0  0  0  0  0
   -4.2483   -2.6870   -1.0914 H   0  0  0  0  0  0  0  0  0  0  0  0
   -4.8550   -4.6160    0.2770 H   0  0  0  0  0  0  0  0  0  0  0  0
   -2.5092   -5.2742    0.9705 H   0  0  0  0  0  0  0  0  0  0  0  0
   -2.5634   -3.9767    2.2326 H   0  0  0  0  0  0  0  0  0  0  0  0
   -3.7311   -5.3430    2.2876 H   0  0  0  0  0  0  0  0  0  0  0  0
   -5.8433   -2.4966    0.9998 H   0  0  0  0  0  0  0  0  0  0  0  0
   -5.5147   -3.5303    2.4254 H   0  0  0  0  0  0  0  0  0  0  0  0
   -4.4205   -2.1424    2.0665 H   0  0  0  0  0  0  0  0  0  0  0  0
   -4.2393    0.9038   -0.1740 H   0  0  0  0  0  0  0  0  0  0  0  0
   -4.8846   -0.7265   -0.1590 H   0  0  0  0  0  0  0  0  0  0  0  0
   -4.9551    0.1595   -2.3232 H   0  0  0  0  0  0  0  0  0  0  0  0
   -3.3297    0.5667   -2.3199 H   0  0  0  0  0  0  0  0  0  0  0  0
   -1.2534    1.8912   -1.6289 H   0  0  0  0  0  0  0  0  0  0  0  0
   -1.6239    4.3232   -1.6860 H   0  0  0  0  0  0  0  0  0  0  0  0
   -3.6151    6.1003   -0.0333 H   0  0  0  0  0  0  0  0  0  0  0  0
   -2.4481    6.3722    1.3214 H   0  0  0  0  0  0  0  0  0  0  0  0
   -1.8693    6.4216   -0.3794 H   0  0  0  0  0  0  0  0  0  0  0  0
   -3.0083    4.2050    2.3968 H   0  0  0  0  0  0  0  0  0  0  0  0
   -2.6352    1.7717    2.4503 H   0  0  0  0  0  0  0  0  0  0  0  0
    5.6482    1.0213    0.7621 H   0  0  0  0  0  0  0  0  0  0  0  0
   -0.6878    0.0000    0.0000 H   0  0  0  0  0  0  0  0  0  0  0  0
   -0.6878    0.0000    0.0000 H   0  0  0  0  0  0  0  0  0  0  0  0
  1  2  1  0
  2  3  2  0
  2  4  1  0
  4  5  2  0
  5  6  1  0
  6  7  2  0
  7  8  1  0
  8  9  1  0
  9 10  1  0
 10 11  2  0
 10 12  1  0
 12 13  1  0
 13 14  2  0
 14 15  1  0
 14 16  1  0
 16 17  2  0
 17 18  1  0
 18 19  1  0
 19 20  1  0
 19 21  1  0
 17 22  1  0
 22 23  1  0
 23 24  1  0
 22 25  2  0
 25 26  1  0
 26 27  2  0
 27 28  1  0
 28 29  2  0
 29 30  1  0
 29 31  1  0
 31 32  2  0
  8 33  2  0
 33  4  1  0
 25 13  1  0
 32 26  1  0
  1 36  1  0
  1 37  1  0
  1 38  1  0
  5 39  1  0
  6 40  1  0
  7 41  1  0
  9 42  1  0
 12 43  1  0
 12 44  1  0
 15 45  1  0
 15 46  1  0
 15 47  1  0
 18 48  1  0
 18 49  1  0
 19 50  1  0
 20 51  1  0
 20 52  1  0
 20 53  1  0
 21 54  1  0
 21 55  1  0
 21 56  1  0
 23 57  1  0
 23 58  1  0
 24 59  1  0
 24 60  1  0
 27 61  1  0
 28 62  1  0
 30 63  1  0
 30 64  1  0
 30 65  1  0
 31 66  1  0
 32 67  1  0
 33 68  1  0
 34 69  1  0
 35 70  1  0
M  END
$$$$
