
     RDKit          3D

 40 42  0  0  0  0  0  0  0  0999 V2000
    1.2317    0.7752    1.3540 N   0  0  0  0  0  0  0  0  0  0  0  0
    1.3202   -0.2698    0.3278 C   0  0  1  0  0  0  0  0  0  0  0  0
   -0.0438   -0.4254   -0.3735 C   0  0  0  0  0  0  0  0  0  0  0  0
   -1.1551   -0.7901    0.5841 C   0  0  0  0  0  0  0  0  0  0  0  0
   -0.8977   -1.5401    1.5659 O   0  0  0  0  0  0  0  0  0  0  0  0
   -2.5102   -0.3372    0.3766 N   0  0  0  0  0  0  0  0  0  0  0  0
   -2.9501    0.1195   -0.9597 C   0  0  0  0  0  0  0  0  0  0  0  0
   -4.4210   -0.2313   -1.2163 C   0  0  0  0  0  0  0  0  0  0  0  0
   -5.2122    0.1353   -0.0539 N   0  0  0  0  0  0  0  0  0  0  0  0
   -6.5302    0.3619    0.0553 C   0  0  0  0  0  0  0  0  0  0  0  0
   -6.8734    0.5466    1.3474 N   0  0  0  0  0  0  0  0  0  0  0  0
   -5.7677    0.4199    2.0725 N   0  0  0  0  0  0  0  0  0  0  0  0
   -4.7706    0.1629    1.2058 C   0  0  0  0  0  0  0  0  0  0  0  0
   -3.3471   -0.1087    1.5734 C   0  0  0  0  0  0  0  0  0  0  0  0
    2.4213    0.0472   -0.7102 C   0  0  0  0  0  0  0  0  0  0  0  0
    3.7973    0.0486   -0.0897 C   0  0  0  0  0  0  0  0  0  0  0  0
    4.4464   -1.1709    0.1684 C   0  0  0  0  0  0  0  0  0  0  0  0
    5.7113   -1.1868    0.7642 C   0  0  0  0  0  0  0  0  0  0  0  0
    6.3291   -2.3694    1.0064 F   0  0  0  0  0  0  0  0  0  0  0  0
    6.3362    0.0143    1.1120 C   0  0  0  0  0  0  0  0  0  0  0  0
    7.5623    0.0003    1.6911 F   0  0  0  0  0  0  0  0  0  0  0  0
    5.6956    1.2317    0.8661 C   0  0  0  0  0  0  0  0  0  0  0  0
    4.4303    1.2541    0.2701 C   0  0  0  0  0  0  0  0  0  0  0  0
    3.8244    2.4485    0.0505 F   0  0  0  0  0  0  0  0  0  0  0  0
    1.1794    1.7144    0.8959 H   0  0  0  0  0  0  0  0  0  0  0  0
    2.0952    0.7524    1.9429 H   0  0  0  0  0  0  0  0  0  0  0  0
    1.5711   -1.2375    0.8186 H   0  0  0  0  0  0  0  0  0  0  0  0
    0.0221   -1.2221   -1.1455 H   0  0  0  0  0  0  0  0  0  0  0  0
   -0.2861    0.5325   -0.8823 H   0  0  0  0  0  0  0  0  0  0  0  0
   -2.3456   -0.3579   -1.7606 H   0  0  0  0  0  0  0  0  0  0  0  0
   -2.8165    1.2209   -1.0270 H   0  0  0  0  0  0  0  0  0  0  0  0
   -4.7870    0.3130   -2.1135 H   0  0  0  0  0  0  0  0  0  0  0  0
   -4.5185   -1.3242   -1.3924 H   0  0  0  0  0  0  0  0  0  0  0  0
   -7.2260    0.3779   -0.7733 H   0  0  0  0  0  0  0  0  0  0  0  0
   -2.9445    0.7524    2.1480 H   0  0  0  0  0  0  0  0  0  0  0  0
   -3.3322   -1.0114    2.2208 H   0  0  0  0  0  0  0  0  0  0  0  0
    2.2116    1.0218   -1.2028 H   0  0  0  0  0  0  0  0  0  0  0  0
    2.3999   -0.7205   -1.5149 H   0  0  0  0  0  0  0  0  0  0  0  0
    3.9701   -2.1084   -0.0914 H   0  0  0  0  0  0  0  0  0  0  0  0
    6.1795    2.1605    1.1401 H   0  0  0  0  0  0  0  0  0  0  0  0
  1  2  1  0
  2  3  1  0
  3  4  1  0
  4  5  2  0
  4  6  1  0
  6  7  1  0
  7  8  1  0
  8  9  1  0
  9 10  1  0
 10 11  2  0
 11 12  1  0
 12 13  2  0
 13 14  1  0
  2 15  1  0
 15 16  1  0
 16 17  2  0
 17 18  1  0
 18 19  1  0
 18 20  2  0
 20 21  1  0
 20 22  1  0
 22 23  2  0
 23 24  1  0
 14  6  1  0
 23 16  1  0
 13  9  1  0
  1 25  1  0
  1 26  1  0
  2 27  1  1
  3 28  1  0
  3 29  1  0
  7 30  1  0
  7 31  1  0
  8 32  1  0
  8 33  1  0
 10 34  1  0
 14 35  1  0
 14 36  1  0
 15 37  1  0
 15 38  1  0
 17 39  1  0
 22 40  1  0
M  END
$$$$
