
     RDKit          3D

 47 49  0  0  0  0  0  0  0  0999 V2000
    7.3060    1.2786   -1.3729 C   0  0  0  0  0  0  0  0  0  0  0  0
    5.9749    1.4259   -0.8937 O   0  0  0  0  0  0  0  0  0  0  0  0
    5.4460    0.6232    0.1221 C   0  0  0  0  0  0  0  0  0  0  0  0
    6.1518   -0.2763    0.6561 O   0  0  0  0  0  0  0  0  0  0  0  0
    4.0952    0.8251    0.5564 N   0  0  0  0  0  0  0  0  0  0  0  0
    3.2239    1.8331   -0.0171 C   0  0  0  0  0  0  0  0  0  0  0  0
    1.8643    1.6321    0.6557 C   0  0  1  0  0  0  0  0  0  0  0  0
    0.8381    0.9357   -0.2346 C   0  0  0  0  0  0  0  0  0  0  0  0
   -0.0368    0.1407    0.7277 C   0  0  1  0  0  0  0  0  0  0  0  0
   -0.6715   -1.0009    0.0431 N   0  0  0  0  0  0  0  0  0  0  0  0
   -1.6999   -1.6579    0.8683 C   0  0  0  0  0  0  0  0  0  0  0  0
   -2.9705   -0.8472    0.9444 C   0  0  0  0  0  0  0  0  0  0  0  0
   -3.1378   -0.0761    1.9280 O   0  0  0  0  0  0  0  0  0  0  0  0
   -3.9734   -0.9102   -0.0893 N   0  0  0  0  0  0  0  0  0  0  0  0
   -3.9266   -1.8197   -1.2249 C   0  0  0  0  0  0  0  0  0  0  0  0
   -5.2048   -1.5631   -2.0134 C   0  0  0  0  0  0  0  0  0  0  0  0
   -5.7263   -0.2135   -1.5285 C   0  0  0  0  0  0  0  0  0  0  0  0
   -5.1169   -0.0106   -0.1419 C   0  0  1  0  0  0  0  0  0  0  0  0
   -6.0797   -0.3584    0.9165 C   0  0  0  0  0  0  0  0  0  0  0  0
   -6.8358   -0.6321    1.7486 N   0  0  0  0  0  0  0  0  0  0  0  0
    0.9196   -0.3139    1.8343 C   0  0  0  0  0  0  0  0  0  0  0  0
    2.0893    0.6854    1.8339 C   0  0  1  0  0  0  0  0  0  0  0  0
    3.4697    0.0482    1.6119 C   0  0  0  0  0  0  0  0  0  0  0  0
    7.4492    0.2596   -1.7906 H   0  0  0  0  0  0  0  0  0  0  0  0
    7.4899    2.0244   -2.1733 H   0  0  0  0  0  0  0  0  0  0  0  0
    8.0286    1.4511   -0.5473 H   0  0  0  0  0  0  0  0  0  0  0  0
    3.1686    1.7177   -1.1217 H   0  0  0  0  0  0  0  0  0  0  0  0
    3.6236    2.8424    0.2223 H   0  0  0  0  0  0  0  0  0  0  0  0
    1.4515    2.6037    1.0109 H   0  0  0  0  0  0  0  0  0  0  0  0
    0.2388    1.6731   -0.8115 H   0  0  0  0  0  0  0  0  0  0  0  0
    1.3412    0.2368   -0.9415 H   0  0  0  0  0  0  0  0  0  0  0  0
   -0.8011    0.8314    1.1509 H   0  0  0  0  0  0  0  0  0  0  0  0
   -1.1162   -0.6612   -0.8418 H   0  0  0  0  0  0  0  0  0  0  0  0
   -1.3175   -1.8550    1.8932 H   0  0  0  0  0  0  0  0  0  0  0  0
   -1.9188   -2.6549    0.4350 H   0  0  0  0  0  0  0  0  0  0  0  0
   -3.8943   -2.8748   -0.8778 H   0  0  0  0  0  0  0  0  0  0  0  0
   -3.0390   -1.5968   -1.8537 H   0  0  0  0  0  0  0  0  0  0  0  0
   -5.9526   -2.3528   -1.7800 H   0  0  0  0  0  0  0  0  0  0  0  0
   -5.0127   -1.5537   -3.1083 H   0  0  0  0  0  0  0  0  0  0  0  0
   -5.3539    0.5832   -2.2098 H   0  0  0  0  0  0  0  0  0  0  0  0
   -6.8390   -0.1837   -1.5293 H   0  0  0  0  0  0  0  0  0  0  0  0
   -4.7883    1.0442   -0.0163 H   0  0  0  0  0  0  0  0  0  0  0  0
    0.4006   -0.2973    2.8175 H   0  0  0  0  0  0  0  0  0  0  0  0
    1.2593   -1.3554    1.6452 H   0  0  0  0  0  0  0  0  0  0  0  0
    2.0966    1.2698    2.7818 H   0  0  0  0  0  0  0  0  0  0  0  0
    4.0750    0.1139    2.5420 H   0  0  0  0  0  0  0  0  0  0  0  0
    3.4118   -1.0135    1.2903 H   0  0  0  0  0  0  0  0  0  0  0  0
  1  2  1  0
  2  3  1  0
  3  4  2  0
  3  5  1  0
  5  6  1  0
  6  7  1  0
  7  8  1  0
  8  9  1  0
  9 10  1  0
 10 11  1  0
 11 12  1  0
 12 13  2  0
 12 14  1  0
 14 15  1  0
 15 16  1  0
 16 17  1  0
 17 18  1  0
 18 19  1  0
 19 20  3  0
  9 21  1  0
 21 22  1  0
 22 23  1  0
 23  5  1  0
 22  7  1  0
 18 14  1  0
  1 24  1  0
  1 25  1  0
  1 26  1  0
  6 27  1  0
  6 28  1  0
  7 29  1  1
  8 30  1  0
  8 31  1  0
  9 32  1  1
 10 33  1  0
 11 34  1  0
 11 35  1  0
 15 36  1  0
 15 37  1  0
 16 38  1  0
 16 39  1  0
 17 40  1  0
 17 41  1  0
 18 42  1  1
 21 43  1  0
 21 44  1  0
 22 45  1  1
 23 46  1  0
 23 47  1  0
M  END
$$$$
