
     RDKit          3D

 44 47  0  0  0  0  0  0  0  0999 V2000
   -5.8597    2.7851   -0.7620 N   0  0  0  0  0  0  0  0  0  0  0  0
   -5.6595    1.6594   -0.5832 C   0  0  0  0  0  0  0  0  0  0  0  0
   -5.4040    0.2265   -0.3561 C   0  0  2  0  0  0  0  0  0  0  0  0
   -5.7707   -0.1777    1.0742 C   0  0  0  0  0  0  0  0  0  0  0  0
   -4.6383   -1.0856    1.5476 C   0  0  2  0  0  0  0  0  0  0  0  0
   -4.3503   -0.8696    2.8849 F   0  0  0  0  0  0  0  0  0  0  0  0
   -3.4398   -0.7512    0.6690 C   0  0  0  0  0  0  0  0  0  0  0  0
   -3.9856   -0.0760   -0.4985 N   0  0  0  0  0  0  0  0  0  0  0  0
   -3.2418    0.1482   -1.7133 C   0  0  0  0  0  0  0  0  0  0  0  0
   -3.8369    0.5589   -2.7462 O   0  0  0  0  0  0  0  0  0  0  0  0
   -1.7593   -0.0808   -1.7732 C   0  0  0  0  0  0  0  0  0  0  0  0
   -1.0805    0.8410   -0.8597 N   0  0  0  0  0  0  0  0  0  0  0  0
    0.3354    0.4920   -0.7791 C   0  0  1  0  0  0  0  0  0  0  0  0
    0.9884    1.0034    0.4974 C   0  0  2  0  0  0  0  0  0  0  0  0
    2.5050    1.1240    0.4673 C   0  0  0  0  0  0  0  0  0  0  0  0
    3.0192   -0.2263    0.2991 N   0  0  0  0  0  0  0  0  0  0  0  0
    4.4281   -0.5155    0.2159 C   0  0  0  0  0  0  0  0  0  0  0  0
    4.8979   -1.8321    0.0596 C   0  0  0  0  0  0  0  0  0  0  0  0
    6.2720   -2.0681   -0.0172 C   0  0  0  0  0  0  0  0  0  0  0  0
    7.1675   -1.0002    0.0613 C   0  0  0  0  0  0  0  0  0  0  0  0
    8.8960   -1.2823   -0.0337 Cl  0  0  0  0  0  0  0  0  0  0  0  0
    6.6704    0.2954    0.2166 C   0  0  0  0  0  0  0  0  0  0  0  0
    5.3292    0.5052    0.2893 N   0  0  0  0  0  0  0  0  0  0  0  0
    1.9665   -1.2293    0.2317 C   0  0  0  0  0  0  0  0  0  0  0  0
    0.6518   -0.4745    0.3539 C   0  0  2  0  0  0  0  0  0  0  0  0
   -5.9866   -0.3757   -1.0868 H   0  0  0  0  0  0  0  0  0  0  0  0
   -5.8311    0.7091    1.7460 H   0  0  0  0  0  0  0  0  0  0  0  0
   -6.7461   -0.7108    1.1014 H   0  0  0  0  0  0  0  0  0  0  0  0
   -4.9276   -2.1494    1.3988 H   0  0  0  0  0  0  0  0  0  0  0  0
   -2.9142   -1.6852    0.3756 H   0  0  0  0  0  0  0  0  0  0  0  0
   -2.7383   -0.0701    1.1974 H   0  0  0  0  0  0  0  0  0  0  0  0
   -1.3934    0.0731   -2.8143 H   0  0  0  0  0  0  0  0  0  0  0  0
   -1.5508   -1.1363   -1.4922 H   0  0  0  0  0  0  0  0  0  0  0  0
   -1.1379    1.8035   -1.2675 H   0  0  0  0  0  0  0  0  0  0  0  0
    0.9519    0.4766   -1.7062 H   0  0  0  0  0  0  0  0  0  0  0  0
    0.3712    1.5346    1.2539 H   0  0  0  0  0  0  0  0  0  0  0  0
    2.8245    1.7694   -0.3791 H   0  0  0  0  0  0  0  0  0  0  0  0
    2.8669    1.5492    1.4275 H   0  0  0  0  0  0  0  0  0  0  0  0
    4.2168   -2.6700   -0.0025 H   0  0  0  0  0  0  0  0  0  0  0  0
    6.6386   -3.0796   -0.1374 H   0  0  0  0  0  0  0  0  0  0  0  0
    7.3477    1.1367    0.2796 H   0  0  0  0  0  0  0  0  0  0  0  0
    2.0672   -1.9418    1.0777 H   0  0  0  0  0  0  0  0  0  0  0  0
    2.0078   -1.7727   -0.7368 H   0  0  0  0  0  0  0  0  0  0  0  0
   -0.1675   -0.8221    1.0194 H   0  0  0  0  0  0  0  0  0  0  0  0
  1  2  3  0
  2  3  1  0
  3  4  1  0
  4  5  1  0
  5  6  1  0
  5  7  1  0
  7  8  1  0
  8  9  1  0
  9 10  2  0
  9 11  1  0
 11 12  1  0
 12 13  1  0
 13 14  1  0
 14 15  1  0
 15 16  1  0
 16 17  1  0
 17 18  2  0
 18 19  1  0
 19 20  2  0
 20 21  1  0
 20 22  1  0
 22 23  2  0
 16 24  1  0
 24 25  1  0
  8  3  1  0
 25 13  1  0
 25 14  1  0
 23 17  1  0
  3 26  1  6
  4 27  1  0
  4 28  1  0
  5 29  1  1
  7 30  1  0
  7 31  1  0
 11 32  1  0
 11 33  1  0
 12 34  1  0
 13 35  1  6
 14 36  1  1
 15 37  1  0
 15 38  1  0
 18 39  1  0
 19 40  1  0
 22 41  1  0
 24 42  1  0
 24 43  1  0
 25 44  1  1
M  END
$$$$
