
     RDKit          3D

 36 37  0  0  0  0  0  0  0  0999 V2000
    0.0358    3.7498    2.2164 N   0  0  0  0  0  0  0  0  0  0  0  0
    0.6900    2.9498    1.6956 C   0  0  0  0  0  0  0  0  0  0  0  0
    1.5012    1.9527    1.0476 C   0  0  0  0  0  0  0  0  0  0  0  0
    2.7841    1.6671    1.5299 C   0  0  0  0  0  0  0  0  0  0  0  0
    3.5658    0.6932    0.9026 C   0  0  0  0  0  0  0  0  0  0  0  0
    3.0664   -0.0054   -0.2005 C   0  0  0  0  0  0  0  0  0  0  0  0
    1.7758    0.2643   -0.6849 C   0  0  0  0  0  0  0  0  0  0  0  0
    1.2178   -0.5107   -1.8554 C   0  0  0  0  0  0  0  0  0  0  0  0
    0.6170   -1.8844   -1.4690 C   0  0  1  0  0  0  0  0  0  0  0  0
    1.6841   -2.8139   -1.0867 N   0  0  0  0  0  0  0  0  0  0  0  0
   -0.4652   -1.8081   -0.3626 C   0  0  0  0  0  0  0  0  0  0  0  0
   -1.6333   -0.9299   -0.7415 C   0  0  0  0  0  0  0  0  0  0  0  0
   -2.1147   -1.0199   -1.9041 O   0  0  0  0  0  0  0  0  0  0  0  0
   -2.2371   -0.0268    0.2054 N   0  0  0  0  0  0  0  0  0  0  0  0
   -1.9899   -0.0941    1.6398 C   0  0  0  0  0  0  0  0  0  0  0  0
   -3.0115    0.7915    2.3322 C   0  0  0  0  0  0  0  0  0  0  0  0
   -3.4817    2.1107    1.1798 S   0  0  0  0  0  0  0  0  0  0  0  0
   -3.1465    1.0220   -0.2332 C   0  0  0  0  0  0  0  0  0  0  0  0
    1.0030    1.2593   -0.0622 C   0  0  0  0  0  0  0  0  0  0  0  0
    3.1795    2.1975    2.3878 H   0  0  0  0  0  0  0  0  0  0  0  0
    4.5592    0.4768    1.2739 H   0  0  0  0  0  0  0  0  0  0  0  0
    3.6841   -0.7577   -0.6748 H   0  0  0  0  0  0  0  0  0  0  0  0
    0.4411    0.0962   -2.3699 H   0  0  0  0  0  0  0  0  0  0  0  0
    2.0231   -0.6679   -2.6062 H   0  0  0  0  0  0  0  0  0  0  0  0
    0.1368   -2.2912   -2.3877 H   0  0  0  0  0  0  0  0  0  0  0  0
    1.2889   -3.7823   -1.0648 H   0  0  0  0  0  0  0  0  0  0  0  0
    2.0087   -2.5982   -0.1162 H   0  0  0  0  0  0  0  0  0  0  0  0
    0.0060   -1.4545    0.5767 H   0  0  0  0  0  0  0  0  0  0  0  0
   -0.8573   -2.8290   -0.1671 H   0  0  0  0  0  0  0  0  0  0  0  0
   -2.0930   -1.1398    2.0025 H   0  0  0  0  0  0  0  0  0  0  0  0
   -0.9662    0.2761    1.8592 H   0  0  0  0  0  0  0  0  0  0  0  0
   -3.9185    0.1993    2.5795 H   0  0  0  0  0  0  0  0  0  0  0  0
   -2.5925    1.2257    3.2645 H   0  0  0  0  0  0  0  0  0  0  0  0
   -4.0957    0.5723   -0.5934 H   0  0  0  0  0  0  0  0  0  0  0  0
   -2.6790    1.6192   -1.0444 H   0  0  0  0  0  0  0  0  0  0  0  0
    0.0135    1.4902   -0.4372 H   0  0  0  0  0  0  0  0  0  0  0  0
  1  2  3  0
  2  3  1  0
  3  4  2  0
  4  5  1  0
  5  6  2  0
  6  7  1  0
  7  8  1  0
  8  9  1  0
  9 10  1  0
  9 11  1  0
 11 12  1  0
 12 13  2  0
 12 14  1  0
 14 15  1  0
 15 16  1  0
 16 17  1  0
 17 18  1  0
  7 19  2  0
 19  3  1  0
 18 14  1  0
  4 20  1  0
  5 21  1  0
  6 22  1  0
  8 23  1  0
  8 24  1  0
  9 25  1  6
 10 26  1  0
 10 27  1  0
 11 28  1  0
 11 29  1  0
 15 30  1  0
 15 31  1  0
 16 32  1  0
 16 33  1  0
 18 34  1  0
 18 35  1  0
 19 36  1  0
M  END
$$$$
