
     RDKit          3D

 72 73  0  0  0  0  0  0  0  0999 V2000
   -9.8004   -0.4272   -2.8395 C   0  0  0  0  0  0  0  0  0  0  0  0
   -8.5389   -0.9703   -3.5009 C   0  0  0  0  0  0  0  0  0  0  0  0
   -7.5151   -1.1795   -2.5309 O   0  0  0  0  0  0  0  0  0  0  0  0
   -6.7722   -0.1398   -1.9598 C   0  0  0  0  0  0  0  0  0  0  0  0
   -6.9255    1.0500   -2.3520 O   0  0  0  0  0  0  0  0  0  0  0  0
   -5.8063   -0.4489   -0.8498 C   0  0  1  0  0  0  0  0  0  0  0  0
   -4.6913    0.4434   -0.9437 O   0  0  0  0  0  0  0  0  0  0  0  0
   -3.4413    0.2697   -0.3262 C   0  0  0  0  0  0  0  0  0  0  0  0
   -2.5149    1.3146   -0.4132 C   0  0  0  0  0  0  0  0  0  0  0  0
   -1.2543    1.2000    0.1787 C   0  0  0  0  0  0  0  0  0  0  0  0
   -0.8902    0.0266    0.8532 C   0  0  0  0  0  0  0  0  0  0  0  0
    0.4039   -0.0571    1.4734 N   0  0  0  0  0  0  0  0  0  0  0  0
    1.1721   -1.2684    1.5733 C   0  0  0  0  0  0  0  0  0  0  0  0
    0.8292   -2.2987    0.9328 O   0  0  0  0  0  0  0  0  0  0  0  0
    2.4205   -1.3116    2.4150 C   0  0  0  0  0  0  0  0  0  0  0  0
    2.1197   -1.0523    3.9044 C   0  0  0  0  0  0  0  0  0  0  0  0
    2.9030    0.1900    4.1802 C   0  0  0  0  0  0  0  0  0  0  0  0
    3.5525    0.6126    3.1531 N   0  0  0  0  0  0  0  0  0  0  0  0
    3.3237   -0.2242    2.0618 N   0  0  0  0  0  0  0  0  0  0  0  0
    3.9816   -0.0672    0.7955 C   0  0  0  0  0  0  0  0  0  0  0  0
    3.7648   -0.8957   -0.1287 O   0  0  0  0  0  0  0  0  0  0  0  0
    4.9435    1.0656    0.5640 C   0  0  0  0  0  0  0  0  0  0  0  0
    6.3230    0.7877    1.1969 C   0  0  2  0  0  0  0  0  0  0  0  0
    7.0658    2.0434    1.3395 N   0  0  0  0  0  0  0  0  0  0  0  0
    7.1421   -0.2943    0.4411 C   0  0  0  0  0  0  0  0  0  0  0  0
    7.6543    0.1415   -0.9159 C   0  0  0  0  0  0  0  0  0  0  0  0
    8.8788    0.8275   -1.0141 C   0  0  0  0  0  0  0  0  0  0  0  0
    9.3621    1.2433   -2.2582 C   0  0  0  0  0  0  0  0  0  0  0  0
   10.5401    1.9104   -2.3368 F   0  0  0  0  0  0  0  0  0  0  0  0
    8.6335    0.9699   -3.4186 C   0  0  0  0  0  0  0  0  0  0  0  0
    9.1014    1.3714   -4.6264 F   0  0  0  0  0  0  0  0  0  0  0  0
    7.4249    0.2744   -3.3357 C   0  0  0  0  0  0  0  0  0  0  0  0
    6.9359   -0.1439   -2.0938 C   0  0  0  0  0  0  0  0  0  0  0  0
    5.7744   -0.8414   -2.0482 F   0  0  0  0  0  0  0  0  0  0  0  0
   -1.8234   -1.0189    0.9580 C   0  0  0  0  0  0  0  0  0  0  0  0
   -3.0852   -0.9038    0.3666 C   0  0  0  0  0  0  0  0  0  0  0  0
   -6.4747   -0.3462    0.5494 C   0  0  0  0  0  0  0  0  0  0  0  0
   -7.0107    1.0629    0.8469 C   0  0  0  0  0  0  0  0  0  0  0  0
   -7.5835   -1.3927    0.7296 C   0  0  0  0  0  0  0  0  0  0  0  0
    0.6878    0.0000    0.0000 Cl  0  0  0  0  0  0  0  0  0  0  0  0
   -9.6007    0.5622   -2.3776 H   0  0  0  0  0  0  0  0  0  0  0  0
  -10.6006   -0.3111   -3.6004 H   0  0  0  0  0  0  0  0  0  0  0  0
  -10.1493   -1.1311   -2.0547 H   0  0  0  0  0  0  0  0  0  0  0  0
   -8.7775   -1.9435   -3.9790 H   0  0  0  0  0  0  0  0  0  0  0  0
   -8.1868   -0.2738   -4.2926 H   0  0  0  0  0  0  0  0  0  0  0  0
   -5.4521   -1.4891   -1.0170 H   0  0  0  0  0  0  0  0  0  0  0  0
   -2.7761    2.2241   -0.9395 H   0  0  0  0  0  0  0  0  0  0  0  0
   -0.5550    2.0232    0.1027 H   0  0  0  0  0  0  0  0  0  0  0  0
    0.8476    0.8322    1.7968 H   0  0  0  0  0  0  0  0  0  0  0  0
    2.9444   -2.2860    2.2939 H   0  0  0  0  0  0  0  0  0  0  0  0
    2.4967   -1.8841    4.5369 H   0  0  0  0  0  0  0  0  0  0  0  0
    1.0413   -0.8757    4.1098 H   0  0  0  0  0  0  0  0  0  0  0  0
    2.9414    0.6903    5.1383 H   0  0  0  0  0  0  0  0  0  0  0  0
    4.5101    1.9839    1.0161 H   0  0  0  0  0  0  0  0  0  0  0  0
    5.0459    1.2676   -0.5231 H   0  0  0  0  0  0  0  0  0  0  0  0
    6.1493    0.3985    2.2250 H   0  0  0  0  0  0  0  0  0  0  0  0
    8.0066    1.8430    1.7502 H   0  0  0  0  0  0  0  0  0  0  0  0
    7.2030    2.4858    0.4022 H   0  0  0  0  0  0  0  0  0  0  0  0
    6.5333   -1.2182    0.3396 H   0  0  0  0  0  0  0  0  0  0  0  0
    8.0096   -0.5834    1.0742 H   0  0  0  0  0  0  0  0  0  0  0  0
    9.4587    1.0421   -0.1252 H   0  0  0  0  0  0  0  0  0  0  0  0
    6.8673    0.0540   -4.2370 H   0  0  0  0  0  0  0  0  0  0  0  0
   -1.5898   -1.9151    1.5170 H   0  0  0  0  0  0  0  0  0  0  0  0
   -3.7718   -1.7321    0.4629 H   0  0  0  0  0  0  0  0  0  0  0  0
   -5.7012   -0.5658    1.3159 H   0  0  0  0  0  0  0  0  0  0  0  0
   -7.8577    1.3180    0.1755 H   0  0  0  0  0  0  0  0  0  0  0  0
   -6.2070    1.8186    0.7199 H   0  0  0  0  0  0  0  0  0  0  0  0
   -7.3690    1.1175    1.8971 H   0  0  0  0  0  0  0  0  0  0  0  0
   -8.4402   -1.1860    0.0539 H   0  0  0  0  0  0  0  0  0  0  0  0
   -7.9520   -1.3795    1.7776 H   0  0  0  0  0  0  0  0  0  0  0  0
   -7.1911   -2.4095    0.5148 H   0  0  0  0  0  0  0  0  0  0  0  0
   -0.6878    0.0000    0.0000 H   0  0  0  0  0  0  0  0  0  0  0  0
  1  2  1  0
  2  3  1  0
  3  4  1  0
  4  5  2  0
  4  6  1  0
  6  7  1  0
  7  8  1  0
  8  9  2  0
  9 10  1  0
 10 11  2  0
 11 12  1  0
 12 13  1  0
 13 14  2  0
 13 15  1  0
 15 16  1  0
 16 17  1  0
 17 18  2  0
 18 19  1  0
 19 20  1  0
 20 21  2  0
 20 22  1  0
 22 23  1  0
 23 24  1  0
 23 25  1  0
 25 26  1  0
 26 27  2  0
 27 28  1  0
 28 29  1  0
 28 30  2  0
 30 31  1  0
 30 32  1  0
 32 33  2  0
 33 34  1  0
 11 35  1  0
 35 36  2  0
  6 37  1  0
 37 38  1  0
 37 39  1  0
 36  8  1  0
 19 15  1  0
 33 26  1  0
  1 41  1  0
  1 42  1  0
  1 43  1  0
  2 44  1  0
  2 45  1  0
  6 46  1  6
  9 47  1  0
 10 48  1  0
 12 49  1  0
 15 50  1  0
 16 51  1  0
 16 52  1  0
 17 53  1  0
 22 54  1  0
 22 55  1  0
 23 56  1  1
 24 57  1  0
 24 58  1  0
 25 59  1  0
 25 60  1  0
 27 61  1  0
 32 62  1  0
 35 63  1  0
 36 64  1  0
 37 65  1  0
 38 66  1  0
 38 67  1  0
 38 68  1  0
 39 69  1  0
 39 70  1  0
 39 71  1  0
 40 72  1  0
M  END
$$$$
