
     RDKit          3D

 36 39  0  0  0  0  0  0  0  0999 V2000
   -1.1042   -1.1681    2.1146 N   0  0  0  0  0  0  0  0  0  0  0  0
   -0.3857   -0.2555    1.2196 C   0  0  1  0  0  0  0  0  0  0  0  0
    1.1336   -0.5166    1.3337 C   0  0  0  0  0  0  0  0  0  0  0  0
    1.8579    0.1531    0.2544 N   0  0  0  0  0  0  0  0  0  0  0  0
    1.3391    0.5556   -0.9301 C   0  0  0  0  0  0  0  0  0  0  0  0
    2.2652    1.0545   -1.7913 N   0  0  0  0  0  0  0  0  0  0  0  0
    3.4113    0.9123   -1.0966 C   0  0  0  0  0  0  0  0  0  0  0  0
    4.7034    1.2336   -1.4956 C   0  0  0  0  0  0  0  0  0  0  0  0
    5.7263    0.9778   -0.6257 N   0  0  0  0  0  0  0  0  0  0  0  0
    5.5097    0.4198    0.6086 C   0  0  0  0  0  0  0  0  0  0  0  0
    4.2059    0.0899    1.0233 C   0  0  0  0  0  0  0  0  0  0  0  0
    3.1752    0.3634    0.1272 C   0  0  0  0  0  0  0  0  0  0  0  0
   -0.1302    0.5299   -1.2113 C   0  0  0  0  0  0  0  0  0  0  0  0
   -0.8511   -0.4481   -0.2551 C   0  0  2  0  0  0  0  0  0  0  0  0
   -2.3613   -0.3416   -0.4248 C   0  0  0  0  0  0  0  0  0  0  0  0
   -3.0736   -1.4352   -0.9539 C   0  0  0  0  0  0  0  0  0  0  0  0
   -4.4596   -1.3693   -1.1226 C   0  0  0  0  0  0  0  0  0  0  0  0
   -5.1294   -2.4329   -1.6317 F   0  0  0  0  0  0  0  0  0  0  0  0
   -5.1537   -0.2107   -0.7678 C   0  0  0  0  0  0  0  0  0  0  0  0
   -6.4983   -0.1460   -0.9311 F   0  0  0  0  0  0  0  0  0  0  0  0
   -4.4622    0.8836   -0.2453 C   0  0  0  0  0  0  0  0  0  0  0  0
   -3.0753    0.8267   -0.0732 C   0  0  0  0  0  0  0  0  0  0  0  0
   -2.4415    1.9122    0.4360 F   0  0  0  0  0  0  0  0  0  0  0  0
   -2.1012   -0.8597    2.1772 H   0  0  0  0  0  0  0  0  0  0  0  0
   -0.7200   -1.0558    3.0813 H   0  0  0  0  0  0  0  0  0  0  0  0
   -0.5726    0.7936    1.5390 H   0  0  0  0  0  0  0  0  0  0  0  0
    1.5002   -0.1462    2.3155 H   0  0  0  0  0  0  0  0  0  0  0  0
    1.3336   -1.6087    1.2726 H   0  0  0  0  0  0  0  0  0  0  0  0
    4.9004    1.6688   -2.4662 H   0  0  0  0  0  0  0  0  0  0  0  0
    6.3477    0.2317    1.2661 H   0  0  0  0  0  0  0  0  0  0  0  0
    4.0184   -0.3531    1.9925 H   0  0  0  0  0  0  0  0  0  0  0  0
   -0.5168    1.5627   -1.0903 H   0  0  0  0  0  0  0  0  0  0  0  0
   -0.2986    0.2150   -2.2639 H   0  0  0  0  0  0  0  0  0  0  0  0
   -0.5334   -1.4740   -0.5538 H   0  0  0  0  0  0  0  0  0  0  0  0
   -2.5567   -2.3438   -1.2366 H   0  0  0  0  0  0  0  0  0  0  0  0
   -5.0027    1.7810    0.0276 H   0  0  0  0  0  0  0  0  0  0  0  0
  1  2  1  0
  2  3  1  0
  3  4  1  0
  4  5  1  0
  5  6  2  0
  6  7  1  0
  7  8  2  0
  8  9  1  0
  9 10  2  0
 10 11  1  0
 11 12  2  0
  5 13  1  0
 13 14  1  0
 14 15  1  0
 15 16  2  0
 16 17  1  0
 17 18  1  0
 17 19  2  0
 19 20  1  0
 19 21  1  0
 21 22  2  0
 22 23  1  0
 14  2  1  0
 22 15  1  0
 12  4  1  0
 12  7  1  0
  1 24  1  0
  1 25  1  0
  2 26  1  1
  3 27  1  0
  3 28  1  0
  8 29  1  0
 10 30  1  0
 11 31  1  0
 13 32  1  0
 13 33  1  0
 14 34  1  6
 16 35  1  0
 21 36  1  0
M  END
$$$$
