
     RDKit          3D

 41 44  0  0  0  0  0  0  0  0999 V2000
   -0.6596    0.5051    1.5938 N   0  0  0  0  0  0  0  0  0  0  0  0
   -0.9086   -0.8576    1.1083 C   0  0  2  0  0  0  0  0  0  0  0  0
    0.4185   -1.6269    0.9730 C   0  0  0  0  0  0  0  0  0  0  0  0
    1.2163   -1.2141   -0.2896 C   0  0  2  0  0  0  0  0  0  0  0  0
    1.8106    0.1412   -0.1458 N   0  0  0  0  0  0  0  0  0  0  0  0
    2.5693    0.5823   -1.3481 C   0  0  0  0  0  0  0  0  0  0  0  0
    3.7250    1.3222   -0.8082 C   0  0  0  0  0  0  0  0  0  0  0  0
    5.0176    1.4470   -1.2748 C   0  0  0  0  0  0  0  0  0  0  0  0
    5.8604    1.3395   -0.2225 N   0  0  0  0  0  0  0  0  0  0  0  0
    5.1283    1.1296    0.8637 N   0  0  0  0  0  0  0  0  0  0  0  0
    3.8334    1.1279    0.5087 C   0  0  0  0  0  0  0  0  0  0  0  0
    2.7574    0.2465    0.9981 C   0  0  0  0  0  0  0  0  0  0  0  0
    0.2458   -1.2815   -1.4928 C   0  0  0  0  0  0  0  0  0  0  0  0
   -0.8596   -0.4167   -1.3045 O   0  0  0  0  0  0  0  0  0  0  0  0
   -1.6752   -0.8869   -0.2427 C   0  0  2  0  0  0  0  0  0  0  0  0
   -2.9687   -0.0947   -0.1643 C   0  0  0  0  0  0  0  0  0  0  0  0
   -4.1091   -0.7088    0.3868 C   0  0  0  0  0  0  0  0  0  0  0  0
   -5.3099   -0.0038    0.5080 C   0  0  0  0  0  0  0  0  0  0  0  0
   -6.4014   -0.6105    1.0361 F   0  0  0  0  0  0  0  0  0  0  0  0
   -5.3852    1.3260    0.0906 C   0  0  0  0  0  0  0  0  0  0  0  0
   -4.2593    1.9547   -0.4440 C   0  0  0  0  0  0  0  0  0  0  0  0
   -3.0532    1.2572   -0.5692 C   0  0  0  0  0  0  0  0  0  0  0  0
   -1.9777    1.9099   -1.0775 F   0  0  0  0  0  0  0  0  0  0  0  0
   -1.5499    0.8938    1.9810 H   0  0  0  0  0  0  0  0  0  0  0  0
   -0.3695    1.1242    0.8043 H   0  0  0  0  0  0  0  0  0  0  0  0
   -1.5215   -1.3901    1.8709 H   0  0  0  0  0  0  0  0  0  0  0  0
    0.1844   -2.7120    0.8938 H   0  0  0  0  0  0  0  0  0  0  0  0
    1.0192   -1.5137    1.8994 H   0  0  0  0  0  0  0  0  0  0  0  0
    2.0265   -1.9615   -0.4519 H   0  0  0  0  0  0  0  0  0  0  0  0
    1.9434    1.2509   -1.9754 H   0  0  0  0  0  0  0  0  0  0  0  0
    2.9436   -0.2800   -1.9451 H   0  0  0  0  0  0  0  0  0  0  0  0
    5.3328    1.4541   -2.3095 H   0  0  0  0  0  0  0  0  0  0  0  0
    5.5194    0.8558    1.7921 H   0  0  0  0  0  0  0  0  0  0  0  0
    3.1964   -0.7401    1.2699 H   0  0  0  0  0  0  0  0  0  0  0  0
    2.2560    0.7062    1.8751 H   0  0  0  0  0  0  0  0  0  0  0  0
    0.7605   -0.9924   -2.4308 H   0  0  0  0  0  0  0  0  0  0  0  0
   -0.0874   -2.3318   -1.6599 H   0  0  0  0  0  0  0  0  0  0  0  0
   -1.9672   -1.9447   -0.4500 H   0  0  0  0  0  0  0  0  0  0  0  0
   -4.0664   -1.7367    0.7259 H   0  0  0  0  0  0  0  0  0  0  0  0
   -6.3147    1.8725    0.1859 H   0  0  0  0  0  0  0  0  0  0  0  0
   -4.3206    2.9887   -0.7585 H   0  0  0  0  0  0  0  0  0  0  0  0
  1  2  1  0
  2  3  1  0
  3  4  1  0
  4  5  1  0
  5  6  1  0
  6  7  1  0
  7  8  1  0
  8  9  2  0
  9 10  1  0
 10 11  1  0
 11 12  1  0
  4 13  1  0
 13 14  1  0
 14 15  1  0
 15 16  1  0
 16 17  2  0
 17 18  1  0
 18 19  1  0
 18 20  2  0
 20 21  1  0
 21 22  2  0
 22 23  1  0
 15  2  1  0
 22 16  1  0
 12  5  1  0
 11  7  2  0
  1 24  1  0
  1 25  1  0
  2 26  1  1
  3 27  1  0
  3 28  1  0
  4 29  1  6
  6 30  1  0
  6 31  1  0
  8 32  1  0
 10 33  1  0
 12 34  1  0
 12 35  1  0
 13 36  1  0
 13 37  1  0
 15 38  1  6
 17 39  1  0
 20 40  1  0
 21 41  1  0
M  END
$$$$
