
     RDKit          3D

 53 55  0  0  0  0  0  0  0  0999 V2000
   -2.6640    3.7266   -0.2958 C   0  0  0  0  0  0  0  0  0  0  0  0
   -2.3651    2.4786    0.4051 C   0  0  0  0  0  0  0  0  0  0  0  0
   -2.1193    1.4468    0.9772 C   0  0  0  0  0  0  0  0  0  0  0  0
   -1.8145    0.1879    1.6649 C   0  0  0  0  0  0  0  0  0  0  0  0
   -0.5807   -0.4017    1.1100 N   0  0  0  0  0  0  0  0  0  0  0  0
   -0.6467   -1.3227    0.0955 C   0  0  0  0  0  0  0  0  0  0  0  0
   -1.9085   -1.7617   -0.4294 N   0  0  0  0  0  0  0  0  0  0  0  0
   -2.4369   -3.0565    0.0194 C   0  0  0  0  0  0  0  0  0  0  0  0
   -3.7708   -3.3848   -0.6589 C   0  0  0  0  0  0  0  0  0  0  0  0
   -4.6469   -2.1331   -0.7077 C   0  0  0  0  0  0  0  0  0  0  0  0
   -4.0088   -1.0151   -1.5676 C   0  0  1  0  0  0  0  0  0  0  0  0
   -4.4377    0.2948   -1.0724 N   0  0  0  0  0  0  0  0  0  0  0  0
   -2.4599   -1.0942   -1.6147 C   0  0  0  0  0  0  0  0  0  0  0  0
    0.5219   -1.8414   -0.4531 C   0  0  0  0  0  0  0  0  0  0  0  0
    1.7488   -1.4101    0.0312 C   0  0  0  0  0  0  0  0  0  0  0  0
    2.8044   -1.8777   -0.4785 O   0  0  0  0  0  0  0  0  0  0  0  0
    1.8073   -0.4853    1.0398 N   0  0  0  0  0  0  0  0  0  0  0  0
    3.1255   -0.0172    1.5228 C   0  0  0  0  0  0  0  0  0  0  0  0
    3.7728    0.9767    0.5698 C   0  0  0  0  0  0  0  0  0  0  0  0
    2.9637    1.7901   -0.2527 C   0  0  0  0  0  0  0  0  0  0  0  0
    3.5335    2.6709   -1.1716 C   0  0  0  0  0  0  0  0  0  0  0  0
    4.9174    2.7704   -1.2788 C   0  0  0  0  0  0  0  0  0  0  0  0
    5.7386    2.0093   -0.4481 C   0  0  0  0  0  0  0  0  0  0  0  0
    5.1870    1.1286    0.5014 C   0  0  0  0  0  0  0  0  0  0  0  0
    6.1150    0.4152    1.4116 C   0  0  0  0  0  0  0  0  0  0  0  0
    7.2628    0.0839    1.0085 O   0  0  0  0  0  0  0  0  0  0  0  0
    5.7549    0.1509    2.7301 O   0  0  0  0  0  0  0  0  0  0  0  0
    0.6442    0.0249    1.5673 C   0  0  0  0  0  0  0  0  0  0  0  0
    0.7002    0.9072    2.4709 O   0  0  0  0  0  0  0  0  0  0  0  0
   -2.5642    4.5791    0.4071 H   0  0  0  0  0  0  0  0  0  0  0  0
   -1.9538    3.8561   -1.1382 H   0  0  0  0  0  0  0  0  0  0  0  0
   -3.7008    3.6900   -0.6890 H   0  0  0  0  0  0  0  0  0  0  0  0
   -2.6803   -0.4988    1.5660 H   0  0  0  0  0  0  0  0  0  0  0  0
   -1.7041    0.3845    2.7528 H   0  0  0  0  0  0  0  0  0  0  0  0
   -2.5928   -3.0207    1.1197 H   0  0  0  0  0  0  0  0  0  0  0  0
   -1.7031   -3.8618   -0.2006 H   0  0  0  0  0  0  0  0  0  0  0  0
   -3.5902   -3.7562   -1.6916 H   0  0  0  0  0  0  0  0  0  0  0  0
   -4.2900   -4.1858   -0.0897 H   0  0  0  0  0  0  0  0  0  0  0  0
   -4.8067   -1.7729    0.3335 H   0  0  0  0  0  0  0  0  0  0  0  0
   -5.6434   -2.3971   -1.1239 H   0  0  0  0  0  0  0  0  0  0  0  0
   -4.3793   -1.1341   -2.6122 H   0  0  0  0  0  0  0  0  0  0  0  0
   -5.4833    0.3286   -1.0905 H   0  0  0  0  0  0  0  0  0  0  0  0
   -4.1196    1.0249   -1.7509 H   0  0  0  0  0  0  0  0  0  0  0  0
   -2.0205   -0.0780   -1.7273 H   0  0  0  0  0  0  0  0  0  0  0  0
   -2.1540   -1.6744   -2.5126 H   0  0  0  0  0  0  0  0  0  0  0  0
    0.4733   -2.5674   -1.2563 H   0  0  0  0  0  0  0  0  0  0  0  0
    3.0506    0.4499    2.5278 H   0  0  0  0  0  0  0  0  0  0  0  0
    3.7800   -0.9060    1.6506 H   0  0  0  0  0  0  0  0  0  0  0  0
    1.8847    1.7408   -0.2009 H   0  0  0  0  0  0  0  0  0  0  0  0
    2.8982    3.2763   -1.8055 H   0  0  0  0  0  0  0  0  0  0  0  0
    5.3561    3.4526   -1.9956 H   0  0  0  0  0  0  0  0  0  0  0  0
    6.8121    2.1318   -0.5281 H   0  0  0  0  0  0  0  0  0  0  0  0
    6.3926   -0.3225    3.3590 H   0  0  0  0  0  0  0  0  0  0  0  0
  1  2  1  0
  2  3  3  0
  3  4  1  0
  4  5  1  0
  5  6  1  0
  6  7  1  0
  7  8  1  0
  8  9  1  0
  9 10  1  0
 10 11  1  0
 11 12  1  0
 11 13  1  0
  6 14  2  0
 14 15  1  0
 15 16  2  0
 15 17  1  0
 17 18  1  0
 18 19  1  0
 19 20  2  0
 20 21  1  0
 21 22  2  0
 22 23  1  0
 23 24  2  0
 24 25  1  0
 25 26  2  0
 25 27  1  0
 17 28  1  0
 28 29  2  0
 28  5  1  0
 13  7  1  0
 24 19  1  0
  1 30  1  0
  1 31  1  0
  1 32  1  0
  4 33  1  0
  4 34  1  0
  8 35  1  0
  8 36  1  0
  9 37  1  0
  9 38  1  0
 10 39  1  0
 10 40  1  0
 11 41  1  6
 12 42  1  0
 12 43  1  0
 13 44  1  0
 13 45  1  0
 14 46  1  0
 18 47  1  0
 18 48  1  0
 20 49  1  0
 21 50  1  0
 22 51  1  0
 23 52  1  0
 27 53  1  0
M  END
$$$$
