
     RDKit          3D

 59 62  0  0  0  0  0  0  0  0999 V2000
    0.6878    0.0000    0.0000 Cl  0  0  0  0  0  0  0  0  0  0  0  0
    4.5645    2.4605    1.1807 C   0  0  0  0  0  0  0  0  0  0  0  0
    3.5345    1.4160    1.0085 N   0  0  0  0  0  0  0  0  0  0  0  0
    2.1977    1.7601    1.0921 C   0  0  0  0  0  0  0  0  0  0  0  0
    1.8512    2.9526    1.3073 O   0  0  0  0  0  0  0  0  0  0  0  0
    1.2266    0.7637    0.9328 C   0  0  0  0  0  0  0  0  0  0  0  0
    1.5865   -0.5247    0.6839 C   0  0  0  0  0  0  0  0  0  0  0  0
    0.4990   -1.3015    0.5193 N   0  0  0  0  0  0  0  0  0  0  0  0
   -0.5223   -0.4293    0.6923 C   0  0  0  0  0  0  0  0  0  0  0  0
   -1.8933   -0.8140    0.5423 N   0  0  0  0  0  0  0  0  0  0  0  0
   -2.7203   -1.0022    1.7377 C   0  0  0  0  0  0  0  0  0  0  0  0
   -4.1674   -0.5463    1.4882 C   0  0  0  0  0  0  0  0  0  0  0  0
   -4.6716   -0.8139    0.0529 C   0  0  0  0  0  0  0  0  0  0  0  0
   -3.7929   -1.8178   -0.7111 C   0  0  1  0  0  0  0  0  0  0  0  0
   -4.3087   -2.0074   -2.0672 N   0  0  0  0  0  0  0  0  0  0  0  0
   -2.3451   -1.2982   -0.7675 C   0  0  0  0  0  0  0  0  0  0  0  0
   -0.1237    0.8430    0.9499 N   0  0  0  0  0  0  0  0  0  0  0  0
   -0.9970    2.0214    1.0234 C   0  0  0  0  0  0  0  0  0  0  0  0
   -1.4637    2.4197   -0.3537 C   0  0  0  0  0  0  0  0  0  0  0  0
   -2.8363    2.5137   -0.6386 C   0  0  0  0  0  0  0  0  0  0  0  0
   -3.2691    2.8588   -1.9219 C   0  0  0  0  0  0  0  0  0  0  0  0
   -2.3372    3.1252   -2.9278 C   0  0  0  0  0  0  0  0  0  0  0  0
   -0.9686    3.0529   -2.6501 C   0  0  0  0  0  0  0  0  0  0  0  0
    0.2018    3.3934   -3.9114 Cl  0  0  0  0  0  0  0  0  0  0  0  0
   -0.5324    2.7063   -1.3667 C   0  0  0  0  0  0  0  0  0  0  0  0
    2.9193   -0.9088    0.5885 C   0  0  0  0  0  0  0  0  0  0  0  0
    3.2814   -2.2397    0.3284 C   0  0  0  0  0  0  0  0  0  0  0  0
    4.6323   -2.6039    0.2364 C   0  0  0  0  0  0  0  0  0  0  0  0
    5.0105   -4.0087   -0.0370 C   0  0  0  0  0  0  0  0  0  0  0  0
    6.2246   -4.3389   -0.1198 O   0  0  0  0  0  0  0  0  0  0  0  0
    4.0277   -4.9808   -0.2056 O   0  0  0  0  0  0  0  0  0  0  0  0
    5.6170   -1.6190    0.4071 C   0  0  0  0  0  0  0  0  0  0  0  0
    5.2662   -0.2912    0.6641 C   0  0  0  0  0  0  0  0  0  0  0  0
    3.9101    0.0985    0.7604 C   0  0  0  0  0  0  0  0  0  0  0  0
   -0.6878    0.0000    0.0000 H   0  0  0  0  0  0  0  0  0  0  0  0
    5.1783    2.5410    0.2583 H   0  0  0  0  0  0  0  0  0  0  0  0
    5.2141    2.2112    2.0466 H   0  0  0  0  0  0  0  0  0  0  0  0
    4.1386    3.4661    1.3755 H   0  0  0  0  0  0  0  0  0  0  0  0
   -2.7143   -2.0803    2.0086 H   0  0  0  0  0  0  0  0  0  0  0  0
   -2.3016   -0.4402    2.6012 H   0  0  0  0  0  0  0  0  0  0  0  0
   -4.8288   -1.0662    2.2150 H   0  0  0  0  0  0  0  0  0  0  0  0
   -4.2472    0.5415    1.7009 H   0  0  0  0  0  0  0  0  0  0  0  0
   -5.7158   -1.1934    0.0995 H   0  0  0  0  0  0  0  0  0  0  0  0
   -4.6967    0.1440   -0.5117 H   0  0  0  0  0  0  0  0  0  0  0  0
   -3.8094   -2.7945   -0.1744 H   0  0  0  0  0  0  0  0  0  0  0  0
   -5.2655   -2.4251   -1.9996 H   0  0  0  0  0  0  0  0  0  0  0  0
   -3.7157   -2.7238   -2.5463 H   0  0  0  0  0  0  0  0  0  0  0  0
   -1.6770   -2.1158   -1.1159 H   0  0  0  0  0  0  0  0  0  0  0  0
   -2.2805   -0.4612   -1.4974 H   0  0  0  0  0  0  0  0  0  0  0  0
   -0.4916    2.8774    1.5068 H   0  0  0  0  0  0  0  0  0  0  0  0
   -1.8646    1.7867    1.6755 H   0  0  0  0  0  0  0  0  0  0  0  0
   -3.5726    2.3190    0.1295 H   0  0  0  0  0  0  0  0  0  0  0  0
   -4.3282    2.9206   -2.1362 H   0  0  0  0  0  0  0  0  0  0  0  0
   -2.6790    3.3915   -3.9199 H   0  0  0  0  0  0  0  0  0  0  0  0
    0.5291    2.6535   -1.1645 H   0  0  0  0  0  0  0  0  0  0  0  0
    2.5106   -2.9902    0.1993 H   0  0  0  0  0  0  0  0  0  0  0  0
    4.2760   -5.9449   -0.3931 H   0  0  0  0  0  0  0  0  0  0  0  0
    6.6675   -1.8742    0.3410 H   0  0  0  0  0  0  0  0  0  0  0  0
    6.0728    0.4177    0.7833 H   0  0  0  0  0  0  0  0  0  0  0  0
  2  3  1  0
  3  4  1  0
  4  5  2  0
  4  6  1  0
  6  7  2  0
  7  8  1  0
  8  9  2  0
  9 10  1  0
 10 11  1  0
 11 12  1  0
 12 13  1  0
 13 14  1  0
 14 15  1  0
 14 16  1  0
  9 17  1  0
 17 18  1  0
 18 19  1  0
 19 20  2  0
 20 21  1  0
 21 22  2  0
 22 23  1  0
 23 24  1  0
 23 25  2  0
  7 26  1  0
 26 27  2  0
 27 28  1  0
 28 29  1  0
 29 30  2  0
 29 31  1  0
 28 32  2  0
 32 33  1  0
 33 34  2  0
 34  3  1  0
 17  6  1  0
 25 19  1  0
 34 26  1  0
 16 10  1  0
  1 35  1  0
  2 36  1  0
  2 37  1  0
  2 38  1  0
 11 39  1  0
 11 40  1  0
 12 41  1  0
 12 42  1  0
 13 43  1  0
 13 44  1  0
 14 45  1  1
 15 46  1  0
 15 47  1  0
 16 48  1  0
 16 49  1  0
 18 50  1  0
 18 51  1  0
 20 52  1  0
 21 53  1  0
 22 54  1  0
 25 55  1  0
 27 56  1  0
 31 57  1  0
 32 58  1  0
 33 59  1  0
M  END
$$$$
