
     RDKit          3D

 49 51  0  0  0  0  0  0  0  0999 V2000
    7.3811    1.4323   -1.5014 C   0  0  0  0  0  0  0  0  0  0  0  0
    6.5603    1.6592   -0.3603 O   0  0  0  0  0  0  0  0  0  0  0  0
    5.2356    1.2146   -0.2371 C   0  0  0  0  0  0  0  0  0  0  0  0
    4.5425    1.5077    0.9436 C   0  0  0  0  0  0  0  0  0  0  0  0
    3.2214    1.0851    1.1154 C   0  0  0  0  0  0  0  0  0  0  0  0
    2.5778    0.3541    0.1072 C   0  0  0  0  0  0  0  0  0  0  0  0
    1.1789   -0.0852    0.2897 C   0  0  0  0  0  0  0  0  0  0  0  0
    0.1738    0.8897    0.2733 C   0  0  0  0  0  0  0  0  0  0  0  0
   -1.1672    0.5180    0.4227 C   0  0  0  0  0  0  0  0  0  0  0  0
   -2.2411    1.5427    0.4214 C   0  0  0  0  0  0  0  0  0  0  0  0
   -1.9280    2.7510    0.6067 O   0  0  0  0  0  0  0  0  0  0  0  0
   -3.6300    1.2066    0.2227 N   0  0  0  0  0  0  0  0  0  0  0  0
   -4.1154   -0.0506   -0.3273 C   0  0  0  0  0  0  0  0  0  0  0  0
   -5.5718    0.1954   -0.6979 C   0  0  0  0  0  0  0  0  0  0  0  0
   -5.9945    1.4433    0.0882 C   0  0  1  0  0  0  0  0  0  0  0  0
   -6.6807    1.0844    1.3329 N   0  0  0  0  0  0  0  0  0  0  0  0
   -4.6929    2.1850    0.3919 C   0  0  0  0  0  0  0  0  0  0  0  0
   -1.4713   -0.7929    0.5986 N   0  0  0  0  0  0  0  0  0  0  0  0
   -0.5339   -1.7772    0.6266 C   0  0  0  0  0  0  0  0  0  0  0  0
   -1.0052   -3.1864    0.8429 C   0  0  0  0  0  0  0  0  0  0  0  0
    0.8374   -1.4458    0.4908 C   0  0  0  0  0  0  0  0  0  0  0  0
    1.9134   -2.5151    0.5416 C   0  0  0  0  0  0  0  0  0  0  0  0
    2.2401   -2.9675   -0.8068 N   0  0  0  0  0  0  0  0  0  0  0  0
    3.2623    0.0684   -1.0825 C   0  0  0  0  0  0  0  0  0  0  0  0
    4.5839    0.4907   -1.2544 C   0  0  0  0  0  0  0  0  0  0  0  0
    7.5141    0.3420   -1.6654 H   0  0  0  0  0  0  0  0  0  0  0  0
    6.9254    1.9014   -2.3989 H   0  0  0  0  0  0  0  0  0  0  0  0
    8.3768    1.8896   -1.3285 H   0  0  0  0  0  0  0  0  0  0  0  0
    5.0311    2.0664    1.7318 H   0  0  0  0  0  0  0  0  0  0  0  0
    2.7020    1.3210    2.0363 H   0  0  0  0  0  0  0  0  0  0  0  0
    0.4397    1.9306    0.1279 H   0  0  0  0  0  0  0  0  0  0  0  0
   -3.5296   -0.3380   -1.2276 H   0  0  0  0  0  0  0  0  0  0  0  0
   -4.0543   -0.8465    0.4456 H   0  0  0  0  0  0  0  0  0  0  0  0
   -5.6421    0.4095   -1.7873 H   0  0  0  0  0  0  0  0  0  0  0  0
   -6.2049   -0.6897   -0.4689 H   0  0  0  0  0  0  0  0  0  0  0  0
   -6.6673    2.0824   -0.5263 H   0  0  0  0  0  0  0  0  0  0  0  0
   -6.1012    0.3954    1.8669 H   0  0  0  0  0  0  0  0  0  0  0  0
   -7.5825    0.6132    1.0904 H   0  0  0  0  0  0  0  0  0  0  0  0
   -4.6822    2.5933    1.4265 H   0  0  0  0  0  0  0  0  0  0  0  0
   -4.5491    3.0162   -0.3326 H   0  0  0  0  0  0  0  0  0  0  0  0
   -0.6846   -3.5417    1.8445 H   0  0  0  0  0  0  0  0  0  0  0  0
   -0.6007   -3.8570    0.0575 H   0  0  0  0  0  0  0  0  0  0  0  0
   -2.1140   -3.2360    0.7954 H   0  0  0  0  0  0  0  0  0  0  0  0
    1.6034   -3.3796    1.1664 H   0  0  0  0  0  0  0  0  0  0  0  0
    2.8289   -2.1116    1.0256 H   0  0  0  0  0  0  0  0  0  0  0  0
    1.4247   -3.5010   -1.1852 H   0  0  0  0  0  0  0  0  0  0  0  0
    3.0321   -3.6461   -0.7328 H   0  0  0  0  0  0  0  0  0  0  0  0
    2.7701   -0.4744   -1.8799 H   0  0  0  0  0  0  0  0  0  0  0  0
    5.0875    0.2530   -2.1814 H   0  0  0  0  0  0  0  0  0  0  0  0
  1  2  1  0
  2  3  1  0
  3  4  2  0
  4  5  1  0
  5  6  2  0
  6  7  1  0
  7  8  2  0
  8  9  1  0
  9 10  1  0
 10 11  2  0
 10 12  1  0
 12 13  1  0
 13 14  1  0
 14 15  1  0
 15 16  1  0
 15 17  1  0
  9 18  2  0
 18 19  1  0
 19 20  1  0
 19 21  2  0
 21 22  1  0
 22 23  1  0
  6 24  1  0
 24 25  2  0
 25  3  1  0
 21  7  1  0
 17 12  1  0
  1 26  1  0
  1 27  1  0
  1 28  1  0
  4 29  1  0
  5 30  1  0
  8 31  1  0
 13 32  1  0
 13 33  1  0
 14 34  1  0
 14 35  1  0
 15 36  1  6
 16 37  1  0
 16 38  1  0
 17 39  1  0
 17 40  1  0
 20 41  1  0
 20 42  1  0
 20 43  1  0
 22 44  1  0
 22 45  1  0
 23 46  1  0
 23 47  1  0
 24 48  1  0
 25 49  1  0
M  END
$$$$
