
     RDKit          3D

 29 29  0  0  0  0  0  0  0  0999 V2000
    2.4762    0.2865    1.3580 C   0  0  0  0  0  0  0  0  0  0  0  0
    2.2949    0.5371   -0.1437 C   0  0  2  0  0  0  0  0  0  0  0  0
    3.2655    1.5207   -0.6332 N   0  0  0  0  0  0  0  0  0  0  0  0
    0.8837    1.0012   -0.4216 C   0  0  0  0  0  0  0  0  0  0  0  0
    0.6383    2.2381   -0.4675 O   0  0  0  0  0  0  0  0  0  0  0  0
   -0.2021    0.0590   -0.5408 N   0  0  0  0  0  0  0  0  0  0  0  0
   -0.0197   -1.3321   -0.9249 C   0  0  0  0  0  0  0  0  0  0  0  0
   -1.4055   -1.8358   -1.3226 C   0  0  1  0  0  0  0  0  0  0  0  0
   -1.6262   -3.1427   -0.8616 O   0  0  0  0  0  0  0  0  0  0  0  0
   -2.3947   -0.8620   -0.6845 C   0  0  0  0  0  0  0  0  0  0  0  0
   -1.6093    0.4366   -0.4700 C   0  0  1  0  0  0  0  0  0  0  0  0
   -1.9604    1.1251    0.9391 B   0  0  0  0  0  0  0  0  0  0  0  0
   -2.5880    2.4437    0.9700 O   0  0  0  0  0  0  0  0  0  0  0  0
   -1.6091    0.4591    2.1920 O   0  0  0  0  0  0  0  0  0  0  0  0
    3.5091   -0.0667    1.5629 H   0  0  0  0  0  0  0  0  0  0  0  0
    2.2935    1.2178    1.9362 H   0  0  0  0  0  0  0  0  0  0  0  0
    1.7657   -0.4943    1.7043 H   0  0  0  0  0  0  0  0  0  0  0  0
    2.4810   -0.4178   -0.6786 H   0  0  0  0  0  0  0  0  0  0  0  0
    3.2376    2.3741   -0.0279 H   0  0  0  0  0  0  0  0  0  0  0  0
    4.2253    1.1137   -0.5450 H   0  0  0  0  0  0  0  0  0  0  0  0
    0.3873   -1.9032   -0.0622 H   0  0  0  0  0  0  0  0  0  0  0  0
    0.6691   -1.4117   -1.7938 H   0  0  0  0  0  0  0  0  0  0  0  0
   -1.5199   -1.7894   -2.4313 H   0  0  0  0  0  0  0  0  0  0  0  0
   -1.0797   -3.7390   -1.4372 H   0  0  0  0  0  0  0  0  0  0  0  0
   -3.2704   -0.6932   -1.3487 H   0  0  0  0  0  0  0  0  0  0  0  0
   -2.7605   -1.2887    0.2771 H   0  0  0  0  0  0  0  0  0  0  0  0
   -1.8382    1.1484   -1.2933 H   0  0  0  0  0  0  0  0  0  0  0  0
   -1.8305    3.0818    0.9736 H   0  0  0  0  0  0  0  0  0  0  0  0
   -2.4130   -0.0663    2.4335 H   0  0  0  0  0  0  0  0  0  0  0  0
  1  2  1  0
  2  3  1  0
  2  4  1  0
  4  5  2  0
  4  6  1  0
  6  7  1  0
  7  8  1  0
  8  9  1  0
  8 10  1  0
 10 11  1  0
 11 12  1  0
 12 13  1  0
 12 14  1  0
 11  6  1  0
  1 15  1  0
  1 16  1  0
  1 17  1  0
  2 18  1  6
  3 19  1  0
  3 20  1  0
  7 21  1  0
  7 22  1  0
  8 23  1  6
  9 24  1  0
 10 25  1  0
 10 26  1  0
 11 27  1  6
 13 28  1  0
 14 29  1  0
M  END
$$$$
