
     RDKit          3D

 44 46  0  0  0  0  0  0  0  0999 V2000
    0.1996   -0.1701   -3.2218 C   0  0  0  0  0  0  0  0  0  0  0  0
    0.3569   -0.0898   -1.7309 C   0  0  0  0  0  0  0  0  0  0  0  0
   -0.7195    0.3025   -0.9984 N   0  0  0  0  0  0  0  0  0  0  0  0
   -0.6959    0.4077    0.3553 C   0  0  0  0  0  0  0  0  0  0  0  0
   -1.9052    0.8595    1.0833 C   0  0  0  0  0  0  0  0  0  0  0  0
   -1.7850    1.2973    2.2602 O   0  0  0  0  0  0  0  0  0  0  0  0
   -3.2134    0.8269    0.4772 N   0  0  0  0  0  0  0  0  0  0  0  0
   -4.1402    1.9454    0.6786 C   0  0  0  0  0  0  0  0  0  0  0  0
   -5.5802    1.4253    0.7269 C   0  0  0  0  0  0  0  0  0  0  0  0
   -5.8612    0.6168   -0.3998 O   0  0  0  0  0  0  0  0  0  0  0  0
   -5.0630   -0.5507   -0.3602 C   0  0  0  0  0  0  0  0  0  0  0  0
   -3.5788   -0.2008   -0.5040 C   0  0  0  0  0  0  0  0  0  0  0  0
    0.4872    0.1134    1.0415 C   0  0  0  0  0  0  0  0  0  0  0  0
    1.6229   -0.2939    0.3328 C   0  0  0  0  0  0  0  0  0  0  0  0
    2.8426   -0.6206    1.0962 C   0  0  0  0  0  0  0  0  0  0  0  0
    3.7285    0.4016    1.4684 C   0  0  0  0  0  0  0  0  0  0  0  0
    4.8866    0.0983    2.1907 C   0  0  0  0  0  0  0  0  0  0  0  0
    5.1629   -1.2249    2.5483 C   0  0  0  0  0  0  0  0  0  0  0  0
    6.2863   -1.5172    3.2487 F   0  0  0  0  0  0  0  0  0  0  0  0
    4.2793   -2.2464    2.1860 C   0  0  0  0  0  0  0  0  0  0  0  0
    3.1192   -1.9481    1.4635 C   0  0  0  0  0  0  0  0  0  0  0  0
    2.2661   -2.9482    1.1259 F   0  0  0  0  0  0  0  0  0  0  0  0
    1.5804   -0.3835   -1.0793 C   0  0  0  0  0  0  0  0  0  0  0  0
    2.8033   -0.8310   -1.8582 C   0  0  0  0  0  0  0  0  0  0  0  0
    2.8939   -2.2873   -1.8553 N   0  0  0  0  0  0  0  0  0  0  0  0
    0.8080    0.6206   -3.7084 H   0  0  0  0  0  0  0  0  0  0  0  0
    0.5132   -1.1686   -3.5905 H   0  0  0  0  0  0  0  0  0  0  0  0
   -0.8628   -0.0176   -3.5089 H   0  0  0  0  0  0  0  0  0  0  0  0
   -4.0327    2.6614   -0.1645 H   0  0  0  0  0  0  0  0  0  0  0  0
   -3.9212    2.4844    1.6255 H   0  0  0  0  0  0  0  0  0  0  0  0
   -6.2725    2.2934    0.7203 H   0  0  0  0  0  0  0  0  0  0  0  0
   -5.7619    0.8706    1.6759 H   0  0  0  0  0  0  0  0  0  0  0  0
   -5.3569   -1.2085   -1.2051 H   0  0  0  0  0  0  0  0  0  0  0  0
   -5.2383   -1.1267    0.5774 H   0  0  0  0  0  0  0  0  0  0  0  0
   -3.3897    0.1849   -1.5291 H   0  0  0  0  0  0  0  0  0  0  0  0
   -2.9792   -1.1239   -0.3465 H   0  0  0  0  0  0  0  0  0  0  0  0
    0.5264    0.1868    2.1224 H   0  0  0  0  0  0  0  0  0  0  0  0
    3.5239    1.4294    1.1947 H   0  0  0  0  0  0  0  0  0  0  0  0
    5.5692    0.8895    2.4726 H   0  0  0  0  0  0  0  0  0  0  0  0
    4.4926   -3.2699    2.4667 H   0  0  0  0  0  0  0  0  0  0  0  0
    3.7215   -0.4052   -1.3998 H   0  0  0  0  0  0  0  0  0  0  0  0
    2.7898   -0.4543   -2.9029 H   0  0  0  0  0  0  0  0  0  0  0  0
    3.7834   -2.5528   -2.3367 H   0  0  0  0  0  0  0  0  0  0  0  0
    2.1139   -2.6672   -2.4390 H   0  0  0  0  0  0  0  0  0  0  0  0
  1  2  1  0
  2  3  2  0
  3  4  1  0
  4  5  1  0
  5  6  2  0
  5  7  1  0
  7  8  1  0
  8  9  1  0
  9 10  1  0
 10 11  1  0
 11 12  1  0
  4 13  2  0
 13 14  1  0
 14 15  1  0
 15 16  2  0
 16 17  1  0
 17 18  2  0
 18 19  1  0
 18 20  1  0
 20 21  2  0
 21 22  1  0
 14 23  2  0
 23 24  1  0
 24 25  1  0
 23  2  1  0
 12  7  1  0
 21 15  1  0
  1 26  1  0
  1 27  1  0
  1 28  1  0
  8 29  1  0
  8 30  1  0
  9 31  1  0
  9 32  1  0
 11 33  1  0
 11 34  1  0
 12 35  1  0
 12 36  1  0
 13 37  1  0
 16 38  1  0
 17 39  1  0
 20 40  1  0
 24 41  1  0
 24 42  1  0
 25 43  1  0
 25 44  1  0
M  END
$$$$
