
     RDKit          3D

 52 54  0  0  0  0  0  0  0  0999 V2000
   -2.7251   -0.1590   -2.1843 N   0  0  0  0  0  0  0  0  0  0  0  0
   -2.3182   -0.1824   -0.7747 C   0  0  2  0  0  0  0  0  0  0  0  0
   -3.1260    0.8441   -0.0020 C   0  0  0  0  0  0  0  0  0  0  0  0
   -2.5788    1.9121    0.3877 O   0  0  0  0  0  0  0  0  0  0  0  0
   -4.5289    0.6432    0.2547 N   0  0  0  0  0  0  0  0  0  0  0  0
   -5.2755   -0.5479   -0.1186 C   0  0  0  0  0  0  0  0  0  0  0  0
   -6.6732   -0.3544    0.4559 C   0  0  0  0  0  0  0  0  0  0  0  0
   -6.7913    1.1368    0.7675 C   0  0  0  0  0  0  0  0  0  0  0  0
   -7.5012    1.3442    1.9384 F   0  0  0  0  0  0  0  0  0  0  0  0
   -7.4291    1.7847   -0.2781 F   0  0  0  0  0  0  0  0  0  0  0  0
   -5.3601    1.6462    0.8985 C   0  0  0  0  0  0  0  0  0  0  0  0
   -0.7733   -0.0240   -0.5829 C   0  0  1  0  0  0  0  0  0  0  0  0
   -0.0273   -1.3675   -0.8096 C   0  0  0  0  0  0  0  0  0  0  0  0
    1.4459   -1.1876   -1.2305 C   0  0  0  0  0  0  0  0  0  0  0  0
    2.0893    0.0729   -0.6117 C   0  0  2  0  0  0  0  0  0  0  0  0
    2.1271   -0.0260    0.8616 N   0  0  0  0  0  0  0  0  0  0  0  0
    3.5168    0.7960    1.5149 S   0  0  0  0  0  0  0  0  0  0  0  0
    3.3938    0.8479    3.0118 O   0  0  0  0  0  0  0  0  0  0  0  0
    3.5825    2.2072    1.0005 O   0  0  0  0  0  0  0  0  0  0  0  0
    4.9887   -0.0858    1.0948 C   0  0  0  0  0  0  0  0  0  0  0  0
    5.3105   -1.2536    1.8022 C   0  0  0  0  0  0  0  0  0  0  0  0
    6.4607   -1.9798    1.4807 C   0  0  0  0  0  0  0  0  0  0  0  0
    7.2956   -1.5472    0.4474 C   0  0  0  0  0  0  0  0  0  0  0  0
    8.4102   -2.2532    0.1354 F   0  0  0  0  0  0  0  0  0  0  0  0
    6.9790   -0.3886   -0.2672 C   0  0  0  0  0  0  0  0  0  0  0  0
    5.8291    0.3426    0.0503 C   0  0  0  0  0  0  0  0  0  0  0  0
    5.5383    1.4551   -0.6691 F   0  0  0  0  0  0  0  0  0  0  0  0
    1.3190    1.3516   -1.0437 C   0  0  0  0  0  0  0  0  0  0  0  0
   -0.1476    1.0949   -1.4444 C   0  0  0  0  0  0  0  0  0  0  0  0
   -2.1466   -0.8321   -2.7351 H   0  0  0  0  0  0  0  0  0  0  0  0
   -2.5802    0.7966   -2.5835 H   0  0  0  0  0  0  0  0  0  0  0  0
   -2.5919   -1.1755   -0.3586 H   0  0  0  0  0  0  0  0  0  0  0  0
   -4.8076   -1.4571    0.3161 H   0  0  0  0  0  0  0  0  0  0  0  0
   -5.3198   -0.6316   -1.2258 H   0  0  0  0  0  0  0  0  0  0  0  0
   -6.7705   -0.9426    1.3952 H   0  0  0  0  0  0  0  0  0  0  0  0
   -7.4554   -0.6877   -0.2604 H   0  0  0  0  0  0  0  0  0  0  0  0
   -5.2437    2.6305    0.3945 H   0  0  0  0  0  0  0  0  0  0  0  0
   -5.0669    1.7368    1.9671 H   0  0  0  0  0  0  0  0  0  0  0  0
   -0.6030    0.2494    0.4839 H   0  0  0  0  0  0  0  0  0  0  0  0
   -0.5311   -1.9787   -1.5880 H   0  0  0  0  0  0  0  0  0  0  0  0
   -0.0658   -1.9581    0.1322 H   0  0  0  0  0  0  0  0  0  0  0  0
    2.0281   -2.0926   -0.9503 H   0  0  0  0  0  0  0  0  0  0  0  0
    1.4987   -1.1049   -2.3388 H   0  0  0  0  0  0  0  0  0  0  0  0
    3.1223    0.1295   -1.0216 H   0  0  0  0  0  0  0  0  0  0  0  0
    2.2328   -1.0258    1.1506 H   0  0  0  0  0  0  0  0  0  0  0  0
    4.6684   -1.6035    2.6007 H   0  0  0  0  0  0  0  0  0  0  0  0
    6.7025   -2.8794    2.0320 H   0  0  0  0  0  0  0  0  0  0  0  0
    7.6242   -0.0578   -1.0711 H   0  0  0  0  0  0  0  0  0  0  0  0
    1.3309    2.1007   -0.2233 H   0  0  0  0  0  0  0  0  0  0  0  0
    1.8403    1.8182   -1.9080 H   0  0  0  0  0  0  0  0  0  0  0  0
   -0.7185    2.0416   -1.3425 H   0  0  0  0  0  0  0  0  0  0  0  0
   -0.1782    0.8013   -2.5167 H   0  0  0  0  0  0  0  0  0  0  0  0
  1  2  1  0
  2  3  1  0
  3  4  2  0
  3  5  1  0
  5  6  1  0
  6  7  1  0
  7  8  1  0
  8  9  1  0
  8 10  1  0
  8 11  1  0
  2 12  1  0
 12 13  1  0
 13 14  1  0
 14 15  1  0
 15 16  1  0
 16 17  1  0
 17 18  2  0
 17 19  2  0
 17 20  1  0
 20 21  2  0
 21 22  1  0
 22 23  2  0
 23 24  1  0
 23 25  1  0
 25 26  2  0
 26 27  1  0
 15 28  1  0
 28 29  1  0
 11  5  1  0
 29 12  1  0
 26 20  1  0
  1 30  1  0
  1 31  1  0
  2 32  1  1
  6 33  1  0
  6 34  1  0
  7 35  1  0
  7 36  1  0
 11 37  1  0
 11 38  1  0
 12 39  1  1
 13 40  1  0
 13 41  1  0
 14 42  1  0
 14 43  1  0
 15 44  1  6
 16 45  1  0
 21 46  1  0
 22 47  1  0
 25 48  1  0
 28 49  1  0
 28 50  1  0
 29 51  1  0
 29 52  1  0
M  END
$$$$
