
     RDKit          3D

 51 52  0  0  0  0  0  0  0  0999 V2000
   -1.0353   -1.8842    1.7259 C   0  0  0  0  0  0  0  0  0  0  0  0
   -0.1140   -1.4706    0.5542 C   0  0  0  0  0  0  0  0  0  0  0  0
    0.0158   -2.6850   -0.3960 C   0  0  0  0  0  0  0  0  0  0  0  0
   -0.7204   -0.2421   -0.1945 C   0  0  0  0  0  0  0  0  0  0  0  0
   -2.1258   -0.4650   -0.6855 C   0  0  0  0  0  0  0  0  0  0  0  0
   -2.3122   -1.0118   -1.8067 O   0  0  0  0  0  0  0  0  0  0  0  0
   -3.2447   -0.0789    0.1257 N   0  0  0  0  0  0  0  0  0  0  0  0
   -4.6301   -0.3243   -0.2935 C   0  0  0  0  0  0  0  0  0  0  0  0
   -5.5957   -0.1327    0.8709 C   0  0  0  0  0  0  0  0  0  0  0  0
   -5.9556    1.3474    0.8739 C   0  0  0  0  0  0  0  0  0  0  0  0
   -5.6401    1.8789   -0.5235 C   0  0  0  0  0  0  0  0  0  0  0  0
   -5.0665    0.7131   -1.3212 C   0  0  0  0  0  0  0  0  0  0  0  0
    1.2111   -1.1393    1.1394 N   0  0  0  0  0  0  0  0  0  0  0  0
    2.2154   -0.6264    0.1912 C   0  0  0  0  0  0  0  0  0  0  0  0
    3.5825   -0.6440    0.8218 C   0  0  0  0  0  0  0  0  0  0  0  0
    3.8383   -1.5071    1.7058 O   0  0  0  0  0  0  0  0  0  0  0  0
    4.6218    0.2615    0.3974 N   0  0  0  0  0  0  0  0  0  0  0  0
    5.8649    0.4072    1.1368 C   0  0  0  0  0  0  0  0  0  0  0  0
    6.5238    1.6662    0.5894 C   0  0  1  0  0  0  0  0  0  0  0  0
    7.8928    1.4976    0.4646 F   0  0  0  0  0  0  0  0  0  0  0  0
    5.8737    1.9194   -0.7681 C   0  0  0  0  0  0  0  0  0  0  0  0
    4.5251    1.1956   -0.7194 C   0  0  1  0  0  0  0  0  0  0  0  0
    4.2653    0.4832   -1.9823 C   0  0  0  0  0  0  0  0  0  0  0  0
    4.0604   -0.0767   -2.9742 N   0  0  0  0  0  0  0  0  0  0  0  0
   -1.2161   -1.0223    2.4036 H   0  0  0  0  0  0  0  0  0  0  0  0
   -2.0179   -2.2567    1.3653 H   0  0  0  0  0  0  0  0  0  0  0  0
   -0.5608   -2.6962    2.3184 H   0  0  0  0  0  0  0  0  0  0  0  0
    0.4747   -2.3995   -1.3649 H   0  0  0  0  0  0  0  0  0  0  0  0
    0.6373   -3.4772    0.0739 H   0  0  0  0  0  0  0  0  0  0  0  0
   -0.9802   -3.1206   -0.6263 H   0  0  0  0  0  0  0  0  0  0  0  0
   -0.0958    0.0150   -1.0765 H   0  0  0  0  0  0  0  0  0  0  0  0
   -0.7081    0.6446    0.4760 H   0  0  0  0  0  0  0  0  0  0  0  0
   -3.0544    0.3588    1.0560 H   0  0  0  0  0  0  0  0  0  0  0  0
   -4.7228   -1.3572   -0.6972 H   0  0  0  0  0  0  0  0  0  0  0  0
   -5.1575   -0.4525    1.8417 H   0  0  0  0  0  0  0  0  0  0  0  0
   -6.5143   -0.7327    0.6854 H   0  0  0  0  0  0  0  0  0  0  0  0
   -5.3393    1.8823    1.6298 H   0  0  0  0  0  0  0  0  0  0  0  0
   -7.0302    1.4890    1.1221 H   0  0  0  0  0  0  0  0  0  0  0  0
   -6.5561    2.2741   -1.0144 H   0  0  0  0  0  0  0  0  0  0  0  0
   -4.8888    2.6964   -0.4562 H   0  0  0  0  0  0  0  0  0  0  0  0
   -5.8642    0.2775   -1.9630 H   0  0  0  0  0  0  0  0  0  0  0  0
   -4.2289    1.0426   -1.9738 H   0  0  0  0  0  0  0  0  0  0  0  0
    1.0849   -0.4112    1.8834 H   0  0  0  0  0  0  0  0  0  0  0  0
    2.2670   -1.2529   -0.7202 H   0  0  0  0  0  0  0  0  0  0  0  0
    1.9587    0.4146   -0.0964 H   0  0  0  0  0  0  0  0  0  0  0  0
    5.6619    0.5215    2.2241 H   0  0  0  0  0  0  0  0  0  0  0  0
    6.5041   -0.4858    0.9641 H   0  0  0  0  0  0  0  0  0  0  0  0
    6.3164    2.5234    1.2674 H   0  0  0  0  0  0  0  0  0  0  0  0
    6.5301    1.5065   -1.5681 H   0  0  0  0  0  0  0  0  0  0  0  0
    5.7377    3.0083   -0.9474 H   0  0  0  0  0  0  0  0  0  0  0  0
    3.7121    1.9281   -0.5264 H   0  0  0  0  0  0  0  0  0  0  0  0
  1  2  1  0
  2  3  1  0
  2  4  1  0
  4  5  1  0
  5  6  2  0
  5  7  1  0
  7  8  1  0
  8  9  1  0
  9 10  1  0
 10 11  1  0
 11 12  1  0
  2 13  1  0
 13 14  1  0
 14 15  1  0
 15 16  2  0
 15 17  1  0
 17 18  1  0
 18 19  1  0
 19 20  1  0
 19 21  1  0
 21 22  1  0
 22 23  1  0
 23 24  3  0
 12  8  1  0
 22 17  1  0
  1 25  1  0
  1 26  1  0
  1 27  1  0
  3 28  1  0
  3 29  1  0
  3 30  1  0
  4 31  1  0
  4 32  1  0
  7 33  1  0
  8 34  1  0
  9 35  1  0
  9 36  1  0
 10 37  1  0
 10 38  1  0
 11 39  1  0
 11 40  1  0
 12 41  1  0
 12 42  1  0
 13 43  1  0
 14 44  1  0
 14 45  1  0
 18 46  1  0
 18 47  1  0
 19 48  1  1
 21 49  1  0
 21 50  1  0
 22 51  1  1
M  END
$$$$
