
     RDKit          3D

 70 74  0  0  0  0  0  0  0  0999 V2000
    5.2443   -5.0370    1.2684 N   0  0  0  0  0  0  0  0  0  0  0  0
    5.0428   -4.1320    0.5760 C   0  0  0  0  0  0  0  0  0  0  0  0
    4.7855   -2.9802   -0.3041 C   0  0  2  0  0  0  0  0  0  0  0  0
    6.0894   -2.4397   -0.8905 C   0  0  0  0  0  0  0  0  0  0  0  0
    6.4745   -1.2436   -0.0182 C   0  0  2  0  0  0  0  0  0  0  0  0
    7.4250   -1.6693    1.0061 N   0  0  0  0  0  0  0  0  0  0  0  0
    7.9461   -0.8536    1.7676 N   0  0  0  0  0  0  0  0  0  0  0  0
    8.4663   -0.0391    2.5283 N   0  0  0  0  0  0  0  0  0  0  0  0
    5.1621   -0.7722    0.6151 C   0  0  0  0  0  0  0  0  0  0  0  0
    4.2286   -1.8785    0.4698 N   0  0  0  0  0  0  0  0  0  0  0  0
    2.8889   -1.8229    1.0008 C   0  0  0  0  0  0  0  0  0  0  0  0
    2.5834   -0.8912    1.7950 O   0  0  0  0  0  0  0  0  0  0  0  0
    1.8235   -2.8186    0.5873 C   0  0  1  0  0  0  0  0  0  0  0  0
    0.7932   -2.9338    1.6250 N   0  0  0  0  0  0  0  0  0  0  0  0
    1.2067   -2.5313   -0.8141 C   0  0  0  0  0  0  0  0  0  0  0  0
    1.1279   -1.0545   -1.2658 C   0  0  0  0  0  0  0  0  0  0  0  0
    0.1348   -0.1764   -0.4887 C   0  0  0  0  0  0  0  0  0  0  0  0
   -1.3242   -0.6399   -0.6399 C   0  0  0  0  0  0  0  0  0  0  0  0
   -2.2546    0.3549   -0.0807 N   0  0  0  0  0  0  0  0  0  0  0  0
   -3.5410    0.5354   -0.7132 C   0  0  0  0  0  0  0  0  0  0  0  0
   -4.7001    0.1203   -0.0334 C   0  0  0  0  0  0  0  0  0  0  0  0
   -5.9584    0.2443   -0.6200 C   0  0  0  0  0  0  0  0  0  0  0  0
   -6.0881    0.7834   -1.8976 C   0  0  0  0  0  0  0  0  0  0  0  0
   -4.9550    1.2129   -2.6009 C   0  0  0  0  0  0  0  0  0  0  0  0
   -5.0950    1.7642   -3.8845 C   0  0  0  0  0  0  0  0  0  0  0  0
   -3.9737    2.2103   -4.5846 C   0  0  0  0  0  0  0  0  0  0  0  0
   -2.7068    2.1160   -4.0101 C   0  0  0  0  0  0  0  0  0  0  0  0
   -2.5502    1.5684   -2.7348 C   0  0  0  0  0  0  0  0  0  0  0  0
   -3.6661    1.0971   -2.0124 C   0  0  0  0  0  0  0  0  0  0  0  0
   -2.0980    0.7704    1.2945 C   0  0  0  0  0  0  0  0  0  0  0  0
   -2.0932   -0.1998    2.3118 C   0  0  0  0  0  0  0  0  0  0  0  0
   -1.9550    0.1685    3.6494 C   0  0  0  0  0  0  0  0  0  0  0  0
   -1.8232    1.5110    3.9987 C   0  0  0  0  0  0  0  0  0  0  0  0
   -1.8252    2.5015    3.0072 C   0  0  0  0  0  0  0  0  0  0  0  0
   -1.6878    3.8526    3.3625 C   0  0  0  0  0  0  0  0  0  0  0  0
   -1.6771    4.8409    2.3771 C   0  0  0  0  0  0  0  0  0  0  0  0
   -1.7988    4.4906    1.0323 C   0  0  0  0  0  0  0  0  0  0  0  0
   -1.9368    3.1505    0.6631 C   0  0  0  0  0  0  0  0  0  0  0  0
   -1.9609    2.1372    1.6406 C   0  0  0  0  0  0  0  0  0  0  0  0
    4.1016   -3.2792   -1.1243 H   0  0  0  0  0  0  0  0  0  0  0  0
    5.8941   -2.0779   -1.9246 H   0  0  0  0  0  0  0  0  0  0  0  0
    6.8977   -3.2039   -0.9447 H   0  0  0  0  0  0  0  0  0  0  0  0
    6.9321   -0.4415   -0.6398 H   0  0  0  0  0  0  0  0  0  0  0  0
    5.2879   -0.5115    1.6886 H   0  0  0  0  0  0  0  0  0  0  0  0
    4.7703    0.1126    0.0677 H   0  0  0  0  0  0  0  0  0  0  0  0
    2.3095   -3.8157    0.5271 H   0  0  0  0  0  0  0  0  0  0  0  0
    0.1687   -3.7404    1.3933 H   0  0  0  0  0  0  0  0  0  0  0  0
    0.1973   -2.0787    1.6409 H   0  0  0  0  0  0  0  0  0  0  0  0
    0.2076   -3.0080   -0.8976 H   0  0  0  0  0  0  0  0  0  0  0  0
    1.8302   -3.0551   -1.5695 H   0  0  0  0  0  0  0  0  0  0  0  0
    2.1366   -0.5918   -1.2161 H   0  0  0  0  0  0  0  0  0  0  0  0
    0.8387   -1.0372   -2.3395 H   0  0  0  0  0  0  0  0  0  0  0  0
    0.4186   -0.1251    0.5797 H   0  0  0  0  0  0  0  0  0  0  0  0
    0.2204    0.8589   -0.8826 H   0  0  0  0  0  0  0  0  0  0  0  0
   -1.5419   -0.8099   -1.7165 H   0  0  0  0  0  0  0  0  0  0  0  0
   -1.4767   -1.6109   -0.1265 H   0  0  0  0  0  0  0  0  0  0  0  0
   -4.6276   -0.3197    0.9527 H   0  0  0  0  0  0  0  0  0  0  0  0
   -6.8382   -0.0857   -0.0827 H   0  0  0  0  0  0  0  0  0  0  0  0
   -7.0758    0.8679   -2.3353 H   0  0  0  0  0  0  0  0  0  0  0  0
   -6.0722    1.8537   -4.3443 H   0  0  0  0  0  0  0  0  0  0  0  0
   -4.0880    2.6364   -5.5730 H   0  0  0  0  0  0  0  0  0  0  0  0
   -1.8413    2.4729   -4.5535 H   0  0  0  0  0  0  0  0  0  0  0  0
   -1.5542    1.5322   -2.3204 H   0  0  0  0  0  0  0  0  0  0  0  0
   -2.2170   -1.2469    2.0695 H   0  0  0  0  0  0  0  0  0  0  0  0
   -1.9565   -0.5914    4.4202 H   0  0  0  0  0  0  0  0  0  0  0  0
   -1.7192    1.7755    5.0444 H   0  0  0  0  0  0  0  0  0  0  0  0
   -1.5862    4.1435    4.4014 H   0  0  0  0  0  0  0  0  0  0  0  0
   -1.5699    5.8811    2.6564 H   0  0  0  0  0  0  0  0  0  0  0  0
   -1.7833    5.2606    0.2717 H   0  0  0  0  0  0  0  0  0  0  0  0
   -2.0166    2.9189   -0.3866 H   0  0  0  0  0  0  0  0  0  0  0  0
  1  2  3  0
  2  3  1  0
  3  4  1  0
  4  5  1  0
  5  6  1  0
  6  7  2  0
  7  8  2  0
  5  9  1  0
  9 10  1  0
 10 11  1  0
 11 12  2  0
 11 13  1  0
 13 14  1  0
 13 15  1  0
 15 16  1  0
 16 17  1  0
 17 18  1  0
 18 19  1  0
 19 20  1  0
 20 21  2  0
 21 22  1  0
 22 23  2  0
 23 24  1  0
 24 25  2  0
 25 26  1  0
 26 27  2  0
 27 28  1  0
 28 29  2  0
 19 30  1  0
 30 31  2  0
 31 32  1  0
 32 33  2  0
 33 34  1  0
 34 35  2  0
 35 36  1  0
 36 37  2  0
 37 38  1  0
 38 39  2  0
 10  3  1  0
 29 20  1  0
 39 30  1  0
 29 24  1  0
 39 34  1  0
  3 40  1  6
  4 41  1  0
  4 42  1  0
  5 43  1  6
  9 44  1  0
  9 45  1  0
 13 46  1  6
 14 47  1  0
 14 48  1  0
 15 49  1  0
 15 50  1  0
 16 51  1  0
 16 52  1  0
 17 53  1  0
 17 54  1  0
 18 55  1  0
 18 56  1  0
 21 57  1  0
 22 58  1  0
 23 59  1  0
 25 60  1  0
 26 61  1  0
 27 62  1  0
 28 63  1  0
 31 64  1  0
 32 65  1  0
 33 66  1  0
 35 67  1  0
 36 68  1  0
 37 69  1  0
 38 70  1  0
M  CHG  2   7   1   8  -1
M  END
$$$$
