
     RDKit          3D

 54 57  0  0  0  0  0  0  0  0999 V2000
    3.4969    0.9132   -2.2796 C   0  0  0  0  0  0  0  0  0  0  0  0
    3.1400    0.0074   -1.1388 C   0  0  0  0  0  0  0  0  0  0  0  0
    1.9253   -0.6192   -0.9523 C   0  0  0  0  0  0  0  0  0  0  0  0
    2.0623   -1.3236    0.2175 C   0  0  0  0  0  0  0  0  0  0  0  0
    3.2867   -1.1220    0.7385 N   0  0  0  0  0  0  0  0  0  0  0  0
    3.9463   -0.3305   -0.0995 N   0  0  0  0  0  0  0  0  0  0  0  0
    5.3006    0.0895    0.1356 C   0  0  0  0  0  0  0  0  0  0  0  0
    5.6954    0.4817    1.4250 C   0  0  0  0  0  0  0  0  0  0  0  0
    7.0149    0.8733    1.6717 C   0  0  0  0  0  0  0  0  0  0  0  0
    7.9538    0.8628    0.6365 C   0  0  0  0  0  0  0  0  0  0  0  0
    9.2334    1.2404    0.8775 F   0  0  0  0  0  0  0  0  0  0  0  0
    7.5752    0.4532   -0.6450 C   0  0  0  0  0  0  0  0  0  0  0  0
    6.2563    0.0617   -0.8951 C   0  0  0  0  0  0  0  0  0  0  0  0
    0.9543   -2.1107    0.8452 C   0  0  0  0  0  0  0  0  0  0  0  0
   -0.0995   -2.4585   -0.2211 C   0  0  0  0  0  0  0  0  0  0  0  0
   -0.4062   -1.2724   -1.0440 N   0  0  0  0  0  0  0  0  0  0  0  0
   -1.7603   -0.8386   -1.2567 C   0  0  0  0  0  0  0  0  0  0  0  0
   -2.1370   -0.5227   -2.4178 O   0  0  0  0  0  0  0  0  0  0  0  0
   -2.7080   -0.6383   -0.1044 C   0  0  0  0  0  0  0  0  0  0  0  0
   -2.7987    0.8526    0.2998 C   0  0  2  0  0  0  0  0  0  0  0  0
   -1.5033    1.3566    0.7684 N   0  0  0  0  0  0  0  0  0  0  0  0
   -3.8459    1.0756    1.4089 C   0  0  0  0  0  0  0  0  0  0  0  0
   -5.2542    0.8145    0.9298 C   0  0  0  0  0  0  0  0  0  0  0  0
   -5.9065    1.7687    0.1300 C   0  0  0  0  0  0  0  0  0  0  0  0
   -7.2030    1.5324   -0.3373 C   0  0  0  0  0  0  0  0  0  0  0  0
   -7.8249    2.4588   -1.1074 F   0  0  0  0  0  0  0  0  0  0  0  0
   -7.8572    0.3413   -0.0130 C   0  0  0  0  0  0  0  0  0  0  0  0
   -7.2162   -0.6157    0.7776 C   0  0  0  0  0  0  0  0  0  0  0  0
   -5.9193   -0.3855    1.2487 C   0  0  0  0  0  0  0  0  0  0  0  0
   -5.3134   -1.3347    2.0064 F   0  0  0  0  0  0  0  0  0  0  0  0
    0.6858   -0.6279   -1.7936 C   0  0  0  0  0  0  0  0  0  0  0  0
    2.5883    1.4126   -2.6750 H   0  0  0  0  0  0  0  0  0  0  0  0
    3.9616    0.3207   -3.0943 H   0  0  0  0  0  0  0  0  0  0  0  0
    4.1998    1.7023   -1.9415 H   0  0  0  0  0  0  0  0  0  0  0  0
    4.9769    0.4948    2.2349 H   0  0  0  0  0  0  0  0  0  0  0  0
    7.3086    1.1834    2.6663 H   0  0  0  0  0  0  0  0  0  0  0  0
    8.3052    0.4306   -1.4439 H   0  0  0  0  0  0  0  0  0  0  0  0
    5.9893   -0.2841   -1.8843 H   0  0  0  0  0  0  0  0  0  0  0  0
    1.3582   -3.0421    1.2959 H   0  0  0  0  0  0  0  0  0  0  0  0
    0.4848   -1.4971    1.6433 H   0  0  0  0  0  0  0  0  0  0  0  0
   -1.0055   -2.8731    0.2661 H   0  0  0  0  0  0  0  0  0  0  0  0
    0.3023   -3.2571   -0.8824 H   0  0  0  0  0  0  0  0  0  0  0  0
   -3.7068   -1.0055   -0.4220 H   0  0  0  0  0  0  0  0  0  0  0  0
   -2.4037   -1.2365    0.7780 H   0  0  0  0  0  0  0  0  0  0  0  0
   -3.1039    1.4488   -0.5903 H   0  0  0  0  0  0  0  0  0  0  0  0
   -0.8422    1.4150   -0.0392 H   0  0  0  0  0  0  0  0  0  0  0  0
   -1.0974    0.6912    1.4666 H   0  0  0  0  0  0  0  0  0  0  0  0
   -3.6028    0.4423    2.2900 H   0  0  0  0  0  0  0  0  0  0  0  0
   -3.7842    2.1304    1.7569 H   0  0  0  0  0  0  0  0  0  0  0  0
   -5.4084    2.6943   -0.1315 H   0  0  0  0  0  0  0  0  0  0  0  0
   -8.8605    0.1578   -0.3755 H   0  0  0  0  0  0  0  0  0  0  0  0
   -7.7251   -1.5388    1.0236 H   0  0  0  0  0  0  0  0  0  0  0  0
    0.8776   -1.1927   -2.7302 H   0  0  0  0  0  0  0  0  0  0  0  0
    0.4142    0.4192   -2.0478 H   0  0  0  0  0  0  0  0  0  0  0  0
  1  2  1  0
  2  3  2  0
  3  4  1  0
  4  5  2  0
  5  6  1  0
  6  7  1  0
  7  8  2  0
  8  9  1  0
  9 10  2  0
 10 11  1  0
 10 12  1  0
 12 13  2  0
  4 14  1  0
 14 15  1  0
 15 16  1  0
 16 17  1  0
 17 18  2  0
 17 19  1  0
 19 20  1  0
 20 21  1  0
 20 22  1  0
 22 23  1  0
 23 24  2  0
 24 25  1  0
 25 26  1  0
 25 27  2  0
 27 28  1  0
 28 29  2  0
 29 30  1  0
 16 31  1  0
  6  2  1  0
 13  7  1  0
 29 23  1  0
 31  3  1  0
  1 32  1  0
  1 33  1  0
  1 34  1  0
  8 35  1  0
  9 36  1  0
 12 37  1  0
 13 38  1  0
 14 39  1  0
 14 40  1  0
 15 41  1  0
 15 42  1  0
 19 43  1  0
 19 44  1  0
 20 45  1  6
 21 46  1  0
 21 47  1  0
 22 48  1  0
 22 49  1  0
 24 50  1  0
 27 51  1  0
 28 52  1  0
 31 53  1  0
 31 54  1  0
M  END
$$$$
