
     RDKit          3D

 25 25  0  0  0  0  0  0  0  0999 V2000
   -1.9444    0.0906   -1.5598 C   0  0  0  0  0  0  0  0  0  0  0  0
   -1.2585    0.8081   -0.3951 C   0  0  1  0  0  0  0  0  0  0  0  0
   -2.2013    0.8447    0.9030 B   0  0  0  0  0  0  0  0  0  0  0  0
   -2.5343    2.1242    1.5243 O   0  0  0  0  0  0  0  0  0  0  0  0
   -2.7296   -0.3940    1.4714 O   0  0  0  0  0  0  0  0  0  0  0  0
    0.0429    0.1905   -0.0989 N   0  0  0  0  0  0  0  0  0  0  0  0
    0.2354   -1.1219    0.5065 C   0  0  0  0  0  0  0  0  0  0  0  0
    1.7496   -1.3987    0.4668 C   0  0  0  0  0  0  0  0  0  0  0  0
    2.3803   -0.3363   -0.4534 C   0  0  2  0  0  0  0  0  0  0  0  0
    3.4992    0.3381    0.2031 N   0  0  0  0  0  0  0  0  0  0  0  0
    1.2632    0.6063   -0.6878 C   0  0  0  0  0  0  0  0  0  0  0  0
    1.3697    1.6537   -1.3811 O   0  0  0  0  0  0  0  0  0  0  0  0
   -1.2758    0.0909   -2.4468 H   0  0  0  0  0  0  0  0  0  0  0  0
   -2.8855    0.6144   -1.8341 H   0  0  0  0  0  0  0  0  0  0  0  0
   -2.1839   -0.9617   -1.2966 H   0  0  0  0  0  0  0  0  0  0  0  0
   -1.0978    1.8666   -0.6945 H   0  0  0  0  0  0  0  0  0  0  0  0
   -3.3640    2.4153    1.0683 H   0  0  0  0  0  0  0  0  0  0  0  0
   -3.5959   -0.5322    1.0117 H   0  0  0  0  0  0  0  0  0  0  0  0
   -0.1324   -1.1253    1.5545 H   0  0  0  0  0  0  0  0  0  0  0  0
   -0.3045   -1.8934   -0.0831 H   0  0  0  0  0  0  0  0  0  0  0  0
    1.9511   -2.4209    0.0788 H   0  0  0  0  0  0  0  0  0  0  0  0
    2.1622   -1.3267    1.4978 H   0  0  0  0  0  0  0  0  0  0  0  0
    2.7020   -0.7893   -1.4182 H   0  0  0  0  0  0  0  0  0  0  0  0
    4.2483   -0.3723    0.3713 H   0  0  0  0  0  0  0  0  0  0  0  0
    3.9038    1.0294   -0.4699 H   0  0  0  0  0  0  0  0  0  0  0  0
  1  2  1  0
  2  3  1  0
  3  4  1  0
  3  5  1  0
  2  6  1  0
  6  7  1  0
  7  8  1  0
  8  9  1  0
  9 10  1  0
  9 11  1  0
 11 12  2  0
 11  6  1  0
  1 13  1  0
  1 14  1  0
  1 15  1  0
  2 16  1  6
  4 17  1  0
  5 18  1  0
  7 19  1  0
  7 20  1  0
  8 21  1  0
  8 22  1  0
  9 23  1  6
 10 24  1  0
 10 25  1  0
M  END
$$$$
