
     RDKit          3D

 59 63  0  0  0  0  0  0  0  0999 V2000
   -1.4143    1.8952   -1.9069 O   0  0  0  0  0  0  0  0  0  0  0  0
   -1.1590    2.2001   -0.7093 C   0  0  0  0  0  0  0  0  0  0  0  0
   -0.6107    1.1401    0.2204 C   0  0  2  0  0  0  0  0  0  0  0  0
    0.9184    1.0818    0.1464 C   0  0  0  0  0  0  0  0  0  0  0  0
    1.2720   -0.4095    0.1340 C   0  0  2  0  0  0  0  0  0  0  0  0
    2.4261   -0.6884   -0.7243 N   0  0  0  0  0  0  0  0  0  0  0  0
    3.6034   -1.2066   -0.3359 C   0  0  0  0  0  0  0  0  0  0  0  0
    4.3826   -1.2791   -1.4712 C   0  0  0  0  0  0  0  0  0  0  0  0
    5.7645   -1.7813   -1.5600 C   0  0  0  0  0  0  0  0  0  0  0  0
    6.4485   -1.7993   -2.7860 C   0  0  0  0  0  0  0  0  0  0  0  0
    7.7580   -2.2824   -2.8334 C   0  0  0  0  0  0  0  0  0  0  0  0
    8.3727   -2.7410   -1.6674 C   0  0  0  0  0  0  0  0  0  0  0  0
    7.6642   -2.7092   -0.4648 C   0  0  0  0  0  0  0  0  0  0  0  0
    6.3898   -2.2354   -0.4377 N   0  0  0  0  0  0  0  0  0  0  0  0
    3.6633   -0.8049   -2.5100 N   0  0  0  0  0  0  0  0  0  0  0  0
    2.4805   -0.4529   -2.0270 N   0  0  0  0  0  0  0  0  0  0  0  0
    0.0164   -1.1355   -0.3479 C   0  0  0  0  0  0  0  0  0  0  0  0
   -1.0698   -0.1914   -0.1576 N   0  0  0  0  0  0  0  0  0  0  0  0
   -2.4481   -0.5924   -0.1628 C   0  0  0  0  0  0  0  0  0  0  0  0
   -3.3463    0.2316    0.1635 O   0  0  0  0  0  0  0  0  0  0  0  0
   -2.7870   -1.9000   -0.5306 O   0  0  0  0  0  0  0  0  0  0  0  0
   -4.1209   -2.4024   -0.4968 C   0  0  0  0  0  0  0  0  0  0  0  0
   -4.5717   -2.5945    0.9255 C   0  0  0  0  0  0  0  0  0  0  0  0
   -3.9626   -3.5737    1.7269 C   0  0  0  0  0  0  0  0  0  0  0  0
   -4.3619   -3.7441    3.0562 C   0  0  0  0  0  0  0  0  0  0  0  0
   -5.3679   -2.9367    3.5943 C   0  0  0  0  0  0  0  0  0  0  0  0
   -5.9753   -1.9567    2.8042 C   0  0  0  0  0  0  0  0  0  0  0  0
   -5.5790   -1.7832    1.4743 C   0  0  0  0  0  0  0  0  0  0  0  0
   -1.3214    3.5633   -0.2773 N   0  0  0  0  0  0  0  0  0  0  0  0
   -1.0435    4.0393    1.0675 C   0  0  0  0  0  0  0  0  0  0  0  0
   -1.4290    5.5130    1.0716 C   0  0  0  0  0  0  0  0  0  0  0  0
   -1.5519    5.9210   -0.3942 C   0  0  0  0  0  0  0  0  0  0  0  0
   -1.7342    4.6271   -1.1758 C   0  0  0  0  0  0  0  0  0  0  0  0
   -0.9278    1.3319    1.2674 H   0  0  0  0  0  0  0  0  0  0  0  0
    1.3784    1.5901    1.0217 H   0  0  0  0  0  0  0  0  0  0  0  0
    1.2921    1.5745   -0.7794 H   0  0  0  0  0  0  0  0  0  0  0  0
    1.4882   -0.7294    1.1793 H   0  0  0  0  0  0  0  0  0  0  0  0
    3.8647   -1.4991    0.6732 H   0  0  0  0  0  0  0  0  0  0  0  0
    5.9773   -1.4450   -3.6943 H   0  0  0  0  0  0  0  0  0  0  0  0
    8.2954   -2.3012   -3.7727 H   0  0  0  0  0  0  0  0  0  0  0  0
    9.3873   -3.1170   -1.6951 H   0  0  0  0  0  0  0  0  0  0  0  0
    8.1270   -3.0612    0.4474 H   0  0  0  0  0  0  0  0  0  0  0  0
   -0.1523   -2.0514    0.2600 H   0  0  0  0  0  0  0  0  0  0  0  0
    0.0759   -1.4103   -1.4230 H   0  0  0  0  0  0  0  0  0  0  0  0
   -4.1439   -3.3833   -1.0168 H   0  0  0  0  0  0  0  0  0  0  0  0
   -4.7982   -1.7181   -1.0535 H   0  0  0  0  0  0  0  0  0  0  0  0
   -3.1783   -4.2015    1.3222 H   0  0  0  0  0  0  0  0  0  0  0  0
   -3.8901   -4.5007    3.6697 H   0  0  0  0  0  0  0  0  0  0  0  0
   -5.6753   -3.0691    4.6235 H   0  0  0  0  0  0  0  0  0  0  0  0
   -6.7521   -1.3300    3.2229 H   0  0  0  0  0  0  0  0  0  0  0  0
   -6.0548   -1.0161    0.8760 H   0  0  0  0  0  0  0  0  0  0  0  0
   -1.6538    3.4841    1.8119 H   0  0  0  0  0  0  0  0  0  0  0  0
    0.0384    3.9186    1.2917 H   0  0  0  0  0  0  0  0  0  0  0  0
   -2.4129    5.6407    1.5748 H   0  0  0  0  0  0  0  0  0  0  0  0
   -0.6683    6.1283    1.5993 H   0  0  0  0  0  0  0  0  0  0  0  0
   -2.4083    6.6123   -0.5510 H   0  0  0  0  0  0  0  0  0  0  0  0
   -0.6139    6.4235   -0.7182 H   0  0  0  0  0  0  0  0  0  0  0  0
   -2.8005    4.4846   -1.4557 H   0  0  0  0  0  0  0  0  0  0  0  0
   -1.1004    4.6332   -2.0894 H   0  0  0  0  0  0  0  0  0  0  0  0
  1  2  2  0
  2  3  1  0
  3  4  1  0
  4  5  1  0
  5  6  1  0
  6  7  1  0
  7  8  2  0
  8  9  1  0
  9 10  2  0
 10 11  1  0
 11 12  2  0
 12 13  1  0
 13 14  2  0
  8 15  1  0
 15 16  2  0
  5 17  1  0
 17 18  1  0
 18 19  1  0
 19 20  2  0
 19 21  1  0
 21 22  1  0
 22 23  1  0
 23 24  2  0
 24 25  1  0
 25 26  2  0
 26 27  1  0
 27 28  2  0
  2 29  1  0
 29 30  1  0
 30 31  1  0
 31 32  1  0
 32 33  1  0
 18  3  1  0
 28 23  1  0
 33 29  1  0
 16  6  1  0
 14  9  1  0
  3 34  1  1
  4 35  1  0
  4 36  1  0
  5 37  1  1
  7 38  1  0
 10 39  1  0
 11 40  1  0
 12 41  1  0
 13 42  1  0
 17 43  1  0
 17 44  1  0
 22 45  1  0
 22 46  1  0
 24 47  1  0
 25 48  1  0
 26 49  1  0
 27 50  1  0
 28 51  1  0
 30 52  1  0
 30 53  1  0
 31 54  1  0
 31 55  1  0
 32 56  1  0
 32 57  1  0
 33 58  1  0
 33 59  1  0
M  END
$$$$
