
     RDKit          3D

 65 67  0  0  0  0  0  0  0  0999 V2000
   -3.2441    0.4222    1.8794 C   0  0  0  0  0  0  0  0  0  0  0  0
   -2.4267    0.9606    0.6929 C   0  0  1  0  0  0  0  0  0  0  0  0
   -0.9995    0.4419    0.7649 C   0  0  0  0  0  0  0  0  0  0  0  0
    0.0705    1.3426    0.8965 C   0  0  0  0  0  0  0  0  0  0  0  0
    1.3873    0.8784    0.9552 C   0  0  0  0  0  0  0  0  0  0  0  0
    1.6640   -0.4979    0.8833 C   0  0  0  0  0  0  0  0  0  0  0  0
    3.0637   -0.9908    0.9451 C   0  0  0  0  0  0  0  0  0  0  0  0
    3.3868   -2.1422    1.6755 C   0  0  0  0  0  0  0  0  0  0  0  0
    4.7038   -2.5900    1.7284 C   0  0  0  0  0  0  0  0  0  0  0  0
    5.7017   -1.8876    1.0492 C   0  0  0  0  0  0  0  0  0  0  0  0
    6.8944   -2.2919    1.1263 O   0  0  0  0  0  0  0  0  0  0  0  0
    5.3864   -0.7658    0.3240 N   0  0  0  0  0  0  0  0  0  0  0  0
    6.4045   -0.0402   -0.3947 C   0  0  0  0  0  0  0  0  0  0  0  0
    6.6023    1.3306   -0.1536 C   0  0  0  0  0  0  0  0  0  0  0  0
    7.5827    2.0367   -0.8575 C   0  0  0  0  0  0  0  0  0  0  0  0
    8.3697    1.3825   -1.8097 C   0  0  0  0  0  0  0  0  0  0  0  0
    9.3193    2.0690   -2.4918 F   0  0  0  0  0  0  0  0  0  0  0  0
    8.1758    0.0210   -2.0604 C   0  0  0  0  0  0  0  0  0  0  0  0
    7.1967   -0.6886   -1.3583 C   0  0  0  0  0  0  0  0  0  0  0  0
    4.0951   -0.3149    0.2711 C   0  0  0  0  0  0  0  0  0  0  0  0
    0.5938   -1.3994    0.7516 C   0  0  0  0  0  0  0  0  0  0  0  0
   -0.7228   -0.9353    0.6917 C   0  0  0  0  0  0  0  0  0  0  0  0
   -3.0855    0.6166   -0.6702 C   0  0  2  0  0  0  0  0  0  0  0  0
   -2.2284    1.0577   -1.7758 N   0  0  0  0  0  0  0  0  0  0  0  0
   -4.4598    1.2524   -0.7878 C   0  0  0  0  0  0  0  0  0  0  0  0
   -4.5429    2.5086   -0.8725 O   0  0  0  0  0  0  0  0  0  0  0  0
   -5.6680    0.4683   -0.7621 N   0  0  0  0  0  0  0  0  0  0  0  0
   -5.7179   -0.9849   -0.7704 C   0  0  0  0  0  0  0  0  0  0  0  0
   -7.1936   -1.3469   -0.8777 C   0  0  0  0  0  0  0  0  0  0  0  0
   -7.9594   -0.0815   -0.4999 C   0  0  2  0  0  0  0  0  0  0  0  0
   -9.0922    0.0671   -1.2826 F   0  0  0  0  0  0  0  0  0  0  0  0
   -6.9887    1.0721   -0.7163 C   0  0  0  0  0  0  0  0  0  0  0  0
    0.7417   -0.0543   -1.5509 O   0  0  0  0  0  0  0  0  0  0  0  0
    0.4683   -0.0074   -0.3216 C   0  0  0  0  0  0  0  0  0  0  0  0
    1.4923   -0.0655    0.6190 O   0  0  0  0  0  0  0  0  0  0  0  0
   -0.9562    0.0505    0.1259 C   0  0  0  0  0  0  0  0  0  0  0  0
   -1.4860   -1.2259    0.1356 F   0  0  0  0  0  0  0  0  0  0  0  0
   -1.6910    0.8433   -0.7371 F   0  0  0  0  0  0  0  0  0  0  0  0
   -1.0303    0.5836    1.3998 F   0  0  0  0  0  0  0  0  0  0  0  0
   -4.2407    0.9103    1.9181 H   0  0  0  0  0  0  0  0  0  0  0  0
   -3.3914   -0.6753    1.7986 H   0  0  0  0  0  0  0  0  0  0  0  0
   -2.7211    0.6438    2.8344 H   0  0  0  0  0  0  0  0  0  0  0  0
   -2.4127    2.0697    0.7931 H   0  0  0  0  0  0  0  0  0  0  0  0
   -0.1117    2.4083    0.9558 H   0  0  0  0  0  0  0  0  0  0  0  0
    2.1888    1.5967    1.0740 H   0  0  0  0  0  0  0  0  0  0  0  0
    2.6254   -2.6839    2.2225 H   0  0  0  0  0  0  0  0  0  0  0  0
    4.9491   -3.4742    2.3041 H   0  0  0  0  0  0  0  0  0  0  0  0
    6.0017    1.8466    0.5849 H   0  0  0  0  0  0  0  0  0  0  0  0
    7.7316    3.0911   -0.6637 H   0  0  0  0  0  0  0  0  0  0  0  0
    8.7817   -0.4849   -2.8010 H   0  0  0  0  0  0  0  0  0  0  0  0
    7.0470   -1.7397   -1.5706 H   0  0  0  0  0  0  0  0  0  0  0  0
    3.8563    0.5603   -0.3231 H   0  0  0  0  0  0  0  0  0  0  0  0
    0.7757   -2.4641    0.6758 H   0  0  0  0  0  0  0  0  0  0  0  0
   -1.5250   -1.6537    0.5841 H   0  0  0  0  0  0  0  0  0  0  0  0
   -3.1714   -0.4863   -0.7415 H   0  0  0  0  0  0  0  0  0  0  0  0
   -2.6868    0.8014   -2.6808 H   0  0  0  0  0  0  0  0  0  0  0  0
   -2.1308    2.0993   -1.7535 H   0  0  0  0  0  0  0  0  0  0  0  0
   -5.2908   -1.3801    0.1764 H   0  0  0  0  0  0  0  0  0  0  0  0
   -5.1600   -1.3888   -1.6429 H   0  0  0  0  0  0  0  0  0  0  0  0
   -7.4301   -1.6319   -1.9268 H   0  0  0  0  0  0  0  0  0  0  0  0
   -7.4530   -2.1920   -0.2037 H   0  0  0  0  0  0  0  0  0  0  0  0
   -8.2530   -0.1296    0.5719 H   0  0  0  0  0  0  0  0  0  0  0  0
   -7.0551    1.7973    0.1240 H   0  0  0  0  0  0  0  0  0  0  0  0
   -7.1928    1.5896   -1.6788 H   0  0  0  0  0  0  0  0  0  0  0  0
    2.4613   -0.1243    0.3293 H   0  0  0  0  0  0  0  0  0  0  0  0
  1  2  1  0
  2  3  1  0
  3  4  2  0
  4  5  1  0
  5  6  2  0
  6  7  1  0
  7  8  1  0
  8  9  2  0
  9 10  1  0
 10 11  2  0
 10 12  1  0
 12 13  1  0
 13 14  2  0
 14 15  1  0
 15 16  2  0
 16 17  1  0
 16 18  1  0
 18 19  2  0
 12 20  1  0
  6 21  1  0
 21 22  2  0
  2 23  1  0
 23 24  1  0
 23 25  1  0
 25 26  2  0
 25 27  1  0
 27 28  1  0
 28 29  1  0
 29 30  1  0
 30 31  1  0
 30 32  1  0
 33 34  2  0
 34 35  1  0
 34 36  1  0
 36 37  1  0
 36 38  1  0
 36 39  1  0
 22  3  1  0
 32 27  1  0
 20  7  2  0
 19 13  1  0
  1 40  1  0
  1 41  1  0
  1 42  1  0
  2 43  1  1
  4 44  1  0
  5 45  1  0
  8 46  1  0
  9 47  1  0
 14 48  1  0
 15 49  1  0
 18 50  1  0
 19 51  1  0
 20 52  1  0
 21 53  1  0
 22 54  1  0
 23 55  1  1
 24 56  1  0
 24 57  1  0
 28 58  1  0
 28 59  1  0
 29 60  1  0
 29 61  1  0
 30 62  1  1
 32 63  1  0
 32 64  1  0
 35 65  1  0
M  END
$$$$
