
     RDKit          3D

 44 46  0  0  0  0  0  0  0  0999 V2000
    0.1664    3.0421    0.2987 C   0  0  0  0  0  0  0  0  0  0  0  0
    0.2946    1.5524    0.1595 C   0  0  0  0  0  0  0  0  0  0  0  0
   -0.8492    0.8179    0.1342 N   0  0  0  0  0  0  0  0  0  0  0  0
   -0.8567   -0.5353    0.0236 C   0  0  0  0  0  0  0  0  0  0  0  0
   -2.1455   -1.2600    0.0207 C   0  0  0  0  0  0  0  0  0  0  0  0
   -2.1659   -2.4999    0.2521 O   0  0  0  0  0  0  0  0  0  0  0  0
   -3.3843   -0.5626   -0.1947 N   0  0  0  0  0  0  0  0  0  0  0  0
   -4.5542   -0.9223    0.6123 C   0  0  0  0  0  0  0  0  0  0  0  0
   -5.7117    0.0355    0.3231 C   0  0  0  0  0  0  0  0  0  0  0  0
   -5.2071    1.3451    0.1692 O   0  0  0  0  0  0  0  0  0  0  0  0
   -4.5210    1.4685   -1.0671 C   0  0  0  0  0  0  0  0  0  0  0  0
   -3.5658    0.2912   -1.3754 C   0  0  0  0  0  0  0  0  0  0  0  0
    0.3587   -1.2218   -0.0564 C   0  0  0  0  0  0  0  0  0  0  0  0
    1.5656   -0.5121   -0.0394 C   0  0  0  0  0  0  0  0  0  0  0  0
    2.8247   -1.2777   -0.1470 C   0  0  0  0  0  0  0  0  0  0  0  0
    3.5939   -1.2196   -1.3198 C   0  0  0  0  0  0  0  0  0  0  0  0
    4.7808   -1.9521   -1.4185 C   0  0  0  0  0  0  0  0  0  0  0  0
    5.2013   -2.7522   -0.3517 C   0  0  0  0  0  0  0  0  0  0  0  0
    6.3520   -3.4625   -0.4494 F   0  0  0  0  0  0  0  0  0  0  0  0
    4.4323   -2.8237    0.8140 C   0  0  0  0  0  0  0  0  0  0  0  0
    3.2450   -2.0921    0.9162 C   0  0  0  0  0  0  0  0  0  0  0  0
    1.5513    0.8994    0.0921 C   0  0  0  0  0  0  0  0  0  0  0  0
    2.8488    1.6854    0.1424 C   0  0  0  0  0  0  0  0  0  0  0  0
    3.3127    1.9815   -1.2091 N   0  0  0  0  0  0  0  0  0  0  0  0
   -0.8968    3.3503    0.2041 H   0  0  0  0  0  0  0  0  0  0  0  0
    0.7421    3.5584   -0.4963 H   0  0  0  0  0  0  0  0  0  0  0  0
    0.5324    3.3604    1.2971 H   0  0  0  0  0  0  0  0  0  0  0  0
   -4.2875   -0.8457    1.6891 H   0  0  0  0  0  0  0  0  0  0  0  0
   -4.8640   -1.9670    0.3937 H   0  0  0  0  0  0  0  0  0  0  0  0
   -6.2777   -0.2914   -0.5804 H   0  0  0  0  0  0  0  0  0  0  0  0
   -6.4211    0.0203    1.1773 H   0  0  0  0  0  0  0  0  0  0  0  0
   -5.2568    1.5881   -1.8930 H   0  0  0  0  0  0  0  0  0  0  0  0
   -3.9258    2.4056   -1.0307 H   0  0  0  0  0  0  0  0  0  0  0  0
   -4.0023   -0.3268   -2.1897 H   0  0  0  0  0  0  0  0  0  0  0  0
   -2.5966    0.6819   -1.7506 H   0  0  0  0  0  0  0  0  0  0  0  0
    0.3709   -2.3020   -0.1477 H   0  0  0  0  0  0  0  0  0  0  0  0
    3.2705   -0.6151   -2.1580 H   0  0  0  0  0  0  0  0  0  0  0  0
    5.3719   -1.9019   -2.3239 H   0  0  0  0  0  0  0  0  0  0  0  0
    4.7552   -3.4460    1.6387 H   0  0  0  0  0  0  0  0  0  0  0  0
    2.6569   -2.1540    1.8237 H   0  0  0  0  0  0  0  0  0  0  0  0
    3.6276    1.1013    0.6785 H   0  0  0  0  0  0  0  0  0  0  0  0
    2.7352    2.6281    0.7189 H   0  0  0  0  0  0  0  0  0  0  0  0
    2.6587    2.6731   -1.6412 H   0  0  0  0  0  0  0  0  0  0  0  0
    4.2407    2.4571   -1.1311 H   0  0  0  0  0  0  0  0  0  0  0  0
  1  2  1  0
  2  3  2  0
  3  4  1  0
  4  5  1  0
  5  6  2  0
  5  7  1  0
  7  8  1  0
  8  9  1  0
  9 10  1  0
 10 11  1  0
 11 12  1  0
  4 13  2  0
 13 14  1  0
 14 15  1  0
 15 16  2  0
 16 17  1  0
 17 18  2  0
 18 19  1  0
 18 20  1  0
 20 21  2  0
 14 22  2  0
 22 23  1  0
 23 24  1  0
 22  2  1  0
 12  7  1  0
 21 15  1  0
  1 25  1  0
  1 26  1  0
  1 27  1  0
  8 28  1  0
  8 29  1  0
  9 30  1  0
  9 31  1  0
 11 32  1  0
 11 33  1  0
 12 34  1  0
 12 35  1  0
 13 36  1  0
 16 37  1  0
 17 38  1  0
 20 39  1  0
 21 40  1  0
 23 41  1  0
 23 42  1  0
 24 43  1  0
 24 44  1  0
M  END
$$$$
