
     RDKit          3D

 67 71  0  0  0  0  0  0  0  0999 V2000
    3.0835   -4.6616    0.9624 O   0  0  0  0  0  0  0  0  0  0  0  0
    2.5338   -3.8064    0.2161 C   0  0  0  0  0  0  0  0  0  0  0  0
    3.2531   -3.4037   -1.0486 C   0  0  0  0  0  0  0  0  0  0  0  0
    4.0682   -2.1793   -0.9039 N   0  0  0  0  0  0  0  0  0  0  0  0
    3.3530   -0.8920   -0.9502 C   0  0  0  0  0  0  0  0  0  0  0  0
    3.0620   -0.2938    0.4396 C   0  0  0  0  0  0  0  0  0  0  0  0
    4.1948   -0.3790    1.3749 N   0  0  0  0  0  0  0  0  0  0  0  0
    5.3213    0.9607    1.2689 S   0  0  0  0  0  0  0  0  0  0  0  0
    6.5653    0.6484    2.0542 O   0  0  0  0  0  0  0  0  0  0  0  0
    4.6796    2.1655    1.8983 O   0  0  0  0  0  0  0  0  0  0  0  0
    5.7816    1.3828   -0.3817 C   0  0  0  0  0  0  0  0  0  0  0  0
    4.9960    2.2792   -1.1236 C   0  0  0  0  0  0  0  0  0  0  0  0
    5.3634    2.6236   -2.4280 C   0  0  0  0  0  0  0  0  0  0  0  0
    6.5233    2.0871   -2.9934 C   0  0  0  0  0  0  0  0  0  0  0  0
    7.3208    1.2107   -2.2524 C   0  0  0  0  0  0  0  0  0  0  0  0
    6.9562    0.8645   -0.9477 C   0  0  0  0  0  0  0  0  0  0  0  0
    4.8204   -1.7081    1.4290 C   0  0  0  0  0  0  0  0  0  0  0  0
    5.1931   -2.2418    0.0434 C   0  0  0  0  0  0  0  0  0  0  0  0
    1.2779   -3.2234    0.6212 N   0  0  0  0  0  0  0  0  0  0  0  0
    0.8894   -3.0574    1.9869 C   0  0  0  0  0  0  0  0  0  0  0  0
    1.6265   -3.4140    2.9438 O   0  0  0  0  0  0  0  0  0  0  0  0
   -0.6923   -2.2615    2.2733 S   0  0  0  0  0  0  0  0  0  0  0  0
   -0.8590   -2.0932    0.4876 C   0  0  0  0  0  0  0  0  0  0  0  0
   -1.8160   -1.3785   -0.1250 C   0  0  0  0  0  0  0  0  0  0  0  0
   -2.9354   -0.7181    0.5776 C   0  0  0  0  0  0  0  0  0  0  0  0
   -3.2772    0.5968    0.2326 C   0  0  0  0  0  0  0  0  0  0  0  0
   -4.3520    1.2371    0.8565 C   0  0  0  0  0  0  0  0  0  0  0  0
   -5.1192    0.5585    1.8225 C   0  0  0  0  0  0  0  0  0  0  0  0
   -6.2108    1.1512    2.4777 O   0  0  0  0  0  0  0  0  0  0  0  0
   -6.7412    2.4460    2.1916 C   0  0  0  0  0  0  0  0  0  0  0  0
   -7.4329    2.4583    0.8541 C   0  0  0  0  0  0  0  0  0  0  0  0
   -8.4130    1.4960    0.5590 C   0  0  0  0  0  0  0  0  0  0  0  0
   -9.0650    1.5105   -0.6780 C   0  0  0  0  0  0  0  0  0  0  0  0
   -8.7501    2.4894   -1.6242 C   0  0  0  0  0  0  0  0  0  0  0  0
   -7.7854    3.4579   -1.3335 C   0  0  0  0  0  0  0  0  0  0  0  0
   -7.1312    3.4472   -0.0975 C   0  0  0  0  0  0  0  0  0  0  0  0
   -4.7906   -0.7622    2.1476 C   0  0  0  0  0  0  0  0  0  0  0  0
   -3.7155   -1.4021    1.5247 C   0  0  0  0  0  0  0  0  0  0  0  0
    0.2579   -2.7059   -0.2300 C   0  0  0  0  0  0  0  0  0  0  0  0
    0.2863   -2.8155   -1.4846 O   0  0  0  0  0  0  0  0  0  0  0  0
    3.9237   -4.2377   -1.3509 H   0  0  0  0  0  0  0  0  0  0  0  0
    2.5584   -3.2983   -1.9016 H   0  0  0  0  0  0  0  0  0  0  0  0
    2.3956   -0.9912   -1.5053 H   0  0  0  0  0  0  0  0  0  0  0  0
    3.9622   -0.1840   -1.5417 H   0  0  0  0  0  0  0  0  0  0  0  0
    2.7382    0.7626    0.3225 H   0  0  0  0  0  0  0  0  0  0  0  0
    2.1997   -0.8194    0.8901 H   0  0  0  0  0  0  0  0  0  0  0  0
    4.0949    2.7013   -0.6980 H   0  0  0  0  0  0  0  0  0  0  0  0
    4.7492    3.3069   -3.0001 H   0  0  0  0  0  0  0  0  0  0  0  0
    6.8069    2.3545   -4.0031 H   0  0  0  0  0  0  0  0  0  0  0  0
    8.2238    0.8025   -2.6876 H   0  0  0  0  0  0  0  0  0  0  0  0
    7.5902    0.1946   -0.3815 H   0  0  0  0  0  0  0  0  0  0  0  0
    5.7242   -1.6919    2.0732 H   0  0  0  0  0  0  0  0  0  0  0  0
    4.1167   -2.4087    1.9209 H   0  0  0  0  0  0  0  0  0  0  0  0
    6.0336   -1.6482   -0.3639 H   0  0  0  0  0  0  0  0  0  0  0  0
    5.5665   -3.2847    0.1419 H   0  0  0  0  0  0  0  0  0  0  0  0
   -1.7425   -1.2157   -1.1940 H   0  0  0  0  0  0  0  0  0  0  0  0
   -2.7020    1.1333   -0.5125 H   0  0  0  0  0  0  0  0  0  0  0  0
   -4.5738    2.2573    0.5798 H   0  0  0  0  0  0  0  0  0  0  0  0
   -5.9342    3.2081    2.2516 H   0  0  0  0  0  0  0  0  0  0  0  0
   -7.4881    2.7000    2.9726 H   0  0  0  0  0  0  0  0  0  0  0  0
   -8.6690    0.7344    1.2853 H   0  0  0  0  0  0  0  0  0  0  0  0
   -9.8156    0.7636   -0.9022 H   0  0  0  0  0  0  0  0  0  0  0  0
   -9.2557    2.4995   -2.5811 H   0  0  0  0  0  0  0  0  0  0  0  0
   -7.5455    4.2183   -2.0654 H   0  0  0  0  0  0  0  0  0  0  0  0
   -6.3885    4.2063    0.1141 H   0  0  0  0  0  0  0  0  0  0  0  0
   -5.3807   -1.3003    2.8786 H   0  0  0  0  0  0  0  0  0  0  0  0
   -3.5084   -2.4366    1.7672 H   0  0  0  0  0  0  0  0  0  0  0  0
  1  2  2  0
  2  3  1  0
  3  4  1  0
  4  5  1  0
  5  6  1  0
  6  7  1  0
  7  8  1  0
  8  9  2  0
  8 10  2  0
  8 11  1  0
 11 12  2  0
 12 13  1  0
 13 14  2  0
 14 15  1  0
 15 16  2  0
  7 17  1  0
 17 18  1  0
  2 19  1  0
 19 20  1  0
 20 21  2  0
 20 22  1  0
 22 23  1  0
 23 24  2  0
 24 25  1  0
 25 26  2  0
 26 27  1  0
 27 28  2  0
 28 29  1  0
 29 30  1  0
 30 31  1  0
 31 32  2  0
 32 33  1  0
 33 34  2  0
 34 35  1  0
 35 36  2  0
 28 37  1  0
 37 38  2  0
 23 39  1  0
 39 40  2  0
 18  4  1  0
 39 19  1  0
 16 11  1  0
 38 25  1  0
 36 31  1  0
  3 41  1  0
  3 42  1  0
  5 43  1  0
  5 44  1  0
  6 45  1  0
  6 46  1  0
 12 47  1  0
 13 48  1  0
 14 49  1  0
 15 50  1  0
 16 51  1  0
 17 52  1  0
 17 53  1  0
 18 54  1  0
 18 55  1  0
 24 56  1  0
 26 57  1  0
 27 58  1  0
 30 59  1  0
 30 60  1  0
 32 61  1  0
 33 62  1  0
 34 63  1  0
 35 64  1  0
 36 65  1  0
 37 66  1  0
 38 67  1  0
M  END
$$$$
