
     RDKit          3D

 40 42  0  0  0  0  0  0  0  0999 V2000
    6.3194    0.3778    1.6343 C   0  0  0  0  0  0  0  0  0  0  0  0
    5.2828    1.3635    1.1848 C   0  0  0  0  0  0  0  0  0  0  0  0
    5.5564    2.5930    1.2497 O   0  0  0  0  0  0  0  0  0  0  0  0
    3.9566    0.9289    0.6710 C   0  0  0  0  0  0  0  0  0  0  0  0
    3.6090   -0.4303    0.5825 C   0  0  0  0  0  0  0  0  0  0  0  0
    2.3568   -0.8093    0.0964 C   0  0  0  0  0  0  0  0  0  0  0  0
    1.4410    0.1750   -0.3069 C   0  0  0  0  0  0  0  0  0  0  0  0
    0.1372   -0.1731   -0.8122 N   0  0  0  0  0  0  0  0  0  0  0  0
   -0.8626    0.8267   -1.1508 C   0  0  0  0  0  0  0  0  0  0  0  0
   -2.1460    0.0504   -1.4710 C   0  0  2  0  0  0  0  0  0  0  0  0
   -3.1750    0.1617   -0.3560 C   0  0  0  0  0  0  0  0  0  0  0  0
   -4.4881    0.5708   -0.6521 C   0  0  0  0  0  0  0  0  0  0  0  0
   -5.4482    0.6595    0.3605 C   0  0  0  0  0  0  0  0  0  0  0  0
   -5.1110    0.3363    1.6767 C   0  0  0  0  0  0  0  0  0  0  0  0
   -3.8132   -0.0782    1.9832 C   0  0  0  0  0  0  0  0  0  0  0  0
   -2.8493   -0.1689    0.9749 C   0  0  0  0  0  0  0  0  0  0  0  0
   -1.7053   -1.4129   -1.6907 C   0  0  1  0  0  0  0  0  0  0  0  0
   -1.6476   -1.7141   -3.1248 N   0  0  0  0  0  0  0  0  0  0  0  0
   -0.3202   -1.5353   -1.0406 C   0  0  0  0  0  0  0  0  0  0  0  0
    1.7960    1.4858   -0.2117 N   0  0  0  0  0  0  0  0  0  0  0  0
    3.0085    1.8804    0.2581 C   0  0  0  0  0  0  0  0  0  0  0  0
    6.5956   -0.2896    0.7913 H   0  0  0  0  0  0  0  0  0  0  0  0
    7.2347    0.9045    1.9795 H   0  0  0  0  0  0  0  0  0  0  0  0
    5.9239   -0.2273    2.4768 H   0  0  0  0  0  0  0  0  0  0  0  0
    4.2981   -1.2062    0.8878 H   0  0  0  0  0  0  0  0  0  0  0  0
    2.1120   -1.8615    0.0431 H   0  0  0  0  0  0  0  0  0  0  0  0
   -1.0018    1.5397   -0.3082 H   0  0  0  0  0  0  0  0  0  0  0  0
   -0.5221    1.3932   -2.0449 H   0  0  0  0  0  0  0  0  0  0  0  0
   -2.5804    0.4643   -2.4098 H   0  0  0  0  0  0  0  0  0  0  0  0
   -4.7716    0.8209   -1.6668 H   0  0  0  0  0  0  0  0  0  0  0  0
   -6.4554    0.9773    0.1238 H   0  0  0  0  0  0  0  0  0  0  0  0
   -5.8560    0.4053    2.4588 H   0  0  0  0  0  0  0  0  0  0  0  0
   -3.5535   -0.3307    3.0032 H   0  0  0  0  0  0  0  0  0  0  0  0
   -1.8504   -0.4930    1.2343 H   0  0  0  0  0  0  0  0  0  0  0  0
   -2.4143   -2.1265   -1.2118 H   0  0  0  0  0  0  0  0  0  0  0  0
   -1.3791   -2.7181   -3.2441 H   0  0  0  0  0  0  0  0  0  0  0  0
   -0.9017   -1.1335   -3.5747 H   0  0  0  0  0  0  0  0  0  0  0  0
   -0.3989   -2.0679   -0.0682 H   0  0  0  0  0  0  0  0  0  0  0  0
    0.3957   -2.0774   -1.6966 H   0  0  0  0  0  0  0  0  0  0  0  0
    3.2279    2.9389    0.3076 H   0  0  0  0  0  0  0  0  0  0  0  0
  1  2  1  0
  2  3  2  0
  2  4  1  0
  4  5  2  0
  5  6  1  0
  6  7  2  0
  7  8  1  0
  8  9  1  0
  9 10  1  0
 10 11  1  0
 11 12  2  0
 12 13  1  0
 13 14  2  0
 14 15  1  0
 15 16  2  0
 10 17  1  0
 17 18  1  0
 17 19  1  0
  7 20  1  0
 20 21  2  0
 21  4  1  0
 19  8  1  0
 16 11  1  0
  1 22  1  0
  1 23  1  0
  1 24  1  0
  5 25  1  0
  6 26  1  0
  9 27  1  0
  9 28  1  0
 10 29  1  6
 12 30  1  0
 13 31  1  0
 14 32  1  0
 15 33  1  0
 16 34  1  0
 17 35  1  1
 18 36  1  0
 18 37  1  0
 19 38  1  0
 19 39  1  0
 21 40  1  0
M  END
$$$$
