
     RDKit          3D

 21 21  0  0  0  0  0  0  0  0999 V2000
   -4.3821   -1.7386   -0.2964 O   0  0  0  0  0  0  0  0  0  0  0  0
   -3.7259   -0.6713   -0.1660 C   0  0  0  0  0  0  0  0  0  0  0  0
   -4.3992    0.5328    0.0252 O   0  0  0  0  0  0  0  0  0  0  0  0
   -2.2560   -0.7155   -0.2160 C   0  0  0  0  0  0  0  0  0  0  0  0
   -1.5099    0.3921   -0.1062 C   0  0  0  0  0  0  0  0  0  0  0  0
   -0.0270    0.3961   -0.1631 C   0  0  0  0  0  0  0  0  0  0  0  0
    0.6295    1.5952   -0.4830 C   0  0  0  0  0  0  0  0  0  0  0  0
    2.0242    1.6493   -0.5402 C   0  0  0  0  0  0  0  0  0  0  0  0
    2.7875    0.5110   -0.2679 C   0  0  0  0  0  0  0  0  0  0  0  0
    4.1779    0.5949   -0.3348 O   0  0  0  0  0  0  0  0  0  0  0  0
    2.1473   -0.6922    0.0710 C   0  0  0  0  0  0  0  0  0  0  0  0
    2.9038   -1.8281    0.3558 O   0  0  0  0  0  0  0  0  0  0  0  0
    0.7463   -0.7463    0.1266 C   0  0  0  0  0  0  0  0  0  0  0  0
   -5.4112    0.5627    0.0602 H   0  0  0  0  0  0  0  0  0  0  0  0
   -1.7934   -1.6802   -0.3731 H   0  0  0  0  0  0  0  0  0  0  0  0
   -2.0062    1.3512   -0.0126 H   0  0  0  0  0  0  0  0  0  0  0  0
    0.0605    2.4917   -0.6986 H   0  0  0  0  0  0  0  0  0  0  0  0
    2.5139    2.5802   -0.7967 H   0  0  0  0  0  0  0  0  0  0  0  0
    4.7748   -0.2013   -0.1455 H   0  0  0  0  0  0  0  0  0  0  0  0
    2.4679   -2.7086    0.6038 H   0  0  0  0  0  0  0  0  0  0  0  0
    0.2774   -1.6751    0.4199 H   0  0  0  0  0  0  0  0  0  0  0  0
  1  2  2  0
  2  3  1  0
  2  4  1  0
  4  5  2  0
  5  6  1  0
  6  7  2  0
  7  8  1  0
  8  9  2  0
  9 10  1  0
  9 11  1  0
 11 12  1  0
 11 13  2  0
 13  6  1  0
  3 14  1  0
  4 15  1  0
  5 16  1  0
  7 17  1  0
  8 18  1  0
 10 19  1  0
 12 20  1  0
 13 21  1  0
M  END
$$$$
