
     RDKit          3D

 40 40  0  0  0  0  0  0  0  0999 V2000
    0.6878    0.0000    0.0000 Cl  0  0  0  0  0  0  0  0  0  0  0  0
    0.7535    1.0759   -0.0934 N   0  0  0  0  0  0  0  0  0  0  0  0
    0.7655   -0.3834    0.0524 C   0  0  1  0  0  0  0  0  0  0  0  0
   -0.5844   -1.0054   -0.3730 C   0  0  0  0  0  0  0  0  0  0  0  0
   -1.7048   -0.6110    0.5570 C   0  0  0  0  0  0  0  0  0  0  0  0
   -1.6548   -1.0091    1.7530 O   0  0  0  0  0  0  0  0  0  0  0  0
   -2.8314    0.1805    0.1175 N   0  0  0  0  0  0  0  0  0  0  0  0
   -2.8481    0.8970   -1.1514 C   0  0  0  0  0  0  0  0  0  0  0  0
   -3.9286    1.9611   -1.0785 C   0  0  0  0  0  0  0  0  0  0  0  0
   -5.2139    1.3882    0.0625 S   0  0  0  0  0  0  0  0  0  0  0  0
   -4.0135    0.3589    0.9595 C   0  0  0  0  0  0  0  0  0  0  0  0
   -4.6528   -0.9612    1.2681 C   0  0  0  0  0  0  0  0  0  0  0  0
   -5.0116   -1.2278    2.4461 O   0  0  0  0  0  0  0  0  0  0  0  0
   -4.8768   -1.8820    0.2485 O   0  0  0  0  0  0  0  0  0  0  0  0
    1.9163   -0.9844   -0.7774 C   0  0  0  0  0  0  0  0  0  0  0  0
    3.2590   -0.4804   -0.3066 C   0  0  0  0  0  0  0  0  0  0  0  0
    3.8779   -1.0782    0.8046 C   0  0  0  0  0  0  0  0  0  0  0  0
    5.1087   -0.6040    1.2687 C   0  0  0  0  0  0  0  0  0  0  0  0
    5.6985   -1.1906    2.3397 F   0  0  0  0  0  0  0  0  0  0  0  0
    5.7282    0.4753    0.6317 C   0  0  0  0  0  0  0  0  0  0  0  0
    6.9212    0.9371    1.0815 F   0  0  0  0  0  0  0  0  0  0  0  0
    5.1156    1.0827   -0.4679 C   0  0  0  0  0  0  0  0  0  0  0  0
    3.8843    0.6126   -0.9367 C   0  0  0  0  0  0  0  0  0  0  0  0
    3.3043    1.2248   -2.0002 F   0  0  0  0  0  0  0  0  0  0  0  0
   -0.6878    0.0000    0.0000 H   0  0  0  0  0  0  0  0  0  0  0  0
    0.0251    1.4809    0.5379 H   0  0  0  0  0  0  0  0  0  0  0  0
    0.5031    1.3260   -1.0776 H   0  0  0  0  0  0  0  0  0  0  0  0
    0.9491   -0.6332    1.1221 H   0  0  0  0  0  0  0  0  0  0  0  0
   -0.8113   -0.7419   -1.4264 H   0  0  0  0  0  0  0  0  0  0  0  0
   -0.5017   -2.1135   -0.3385 H   0  0  0  0  0  0  0  0  0  0  0  0
   -3.0685    0.1823   -1.9734 H   0  0  0  0  0  0  0  0  0  0  0  0
   -1.8724    1.3908   -1.3393 H   0  0  0  0  0  0  0  0  0  0  0  0
   -3.5012    2.9057   -0.6786 H   0  0  0  0  0  0  0  0  0  0  0  0
   -4.3626    2.1534   -2.0822 H   0  0  0  0  0  0  0  0  0  0  0  0
   -3.7235    0.8804    1.8977 H   0  0  0  0  0  0  0  0  0  0  0  0
   -5.3157   -2.7743    0.4417 H   0  0  0  0  0  0  0  0  0  0  0  0
    1.8994   -2.0931   -0.6881 H   0  0  0  0  0  0  0  0  0  0  0  0
    1.7688   -0.7513   -1.8547 H   0  0  0  0  0  0  0  0  0  0  0  0
    3.4045   -1.9104    1.3111 H   0  0  0  0  0  0  0  0  0  0  0  0
    5.5945    1.9215   -0.9566 H   0  0  0  0  0  0  0  0  0  0  0  0
  2  3  1  0
  3  4  1  0
  4  5  1  0
  5  6  2  0
  5  7  1  0
  7  8  1  0
  8  9  1  0
  9 10  1  0
 10 11  1  0
 11 12  1  0
 12 13  2  0
 12 14  1  0
  3 15  1  0
 15 16  1  0
 16 17  2  0
 17 18  1  0
 18 19  1  0
 18 20  2  0
 20 21  1  0
 20 22  1  0
 22 23  2  0
 23 24  1  0
 11  7  1  0
 23 16  1  0
  1 25  1  0
  2 26  1  0
  2 27  1  0
  3 28  1  1
  4 29  1  0
  4 30  1  0
  8 31  1  0
  8 32  1  0
  9 33  1  0
  9 34  1  0
 11 35  1  0
 14 36  1  0
 15 37  1  0
 15 38  1  0
 17 39  1  0
 22 40  1  0
M  END
$$$$
