
     RDKit          3D

 64 66  0  0  0  0  0  0  0  0999 V2000
   -2.7697   -3.7614   -0.7304 C   0  0  0  0  0  0  0  0  0  0  0  0
   -1.9960   -3.0364    0.2842 N   0  0  0  0  0  0  0  0  0  0  0  0
   -1.6108   -3.7202    1.5243 C   0  0  0  0  0  0  0  0  0  0  0  0
   -1.5942   -1.6729    0.0057 C   0  0  0  0  0  0  0  0  0  0  0  0
   -1.7866   -1.2095   -1.1520 O   0  0  0  0  0  0  0  0  0  0  0  0
   -0.9547   -0.7734    1.0578 C   0  0  1  0  0  0  0  0  0  0  0  0
    0.4250   -0.2931    0.6159 C   0  0  0  0  0  0  0  0  0  0  0  0
    1.5501   -0.5830    1.4092 C   0  0  0  0  0  0  0  0  0  0  0  0
    2.8226   -0.1455    1.0335 C   0  0  0  0  0  0  0  0  0  0  0  0
    3.0076    0.5903   -0.1486 C   0  0  0  0  0  0  0  0  0  0  0  0
    4.3676    1.0525   -0.5272 C   0  0  0  0  0  0  0  0  0  0  0  0
    4.7338    1.2445   -1.8856 C   0  0  0  0  0  0  0  0  0  0  0  0
    6.0323    1.6775   -2.1873 C   0  0  0  0  0  0  0  0  0  0  0  0
    6.8851    1.8891   -1.1582 N   0  0  0  0  0  0  0  0  0  0  0  0
    8.1416    2.2899   -1.2298 N   0  0  0  0  0  0  0  0  0  0  0  0
    8.5964    2.3534    0.0460 C   0  0  0  0  0  0  0  0  0  0  0  0
    7.5945    1.9799    0.9399 C   0  0  0  0  0  0  0  0  0  0  0  0
    6.5345    1.6972    0.1148 C   0  0  0  0  0  0  0  0  0  0  0  0
    5.2922    1.2800    0.4566 N   0  0  0  0  0  0  0  0  0  0  0  0
    1.8836    0.8955   -0.9363 C   0  0  0  0  0  0  0  0  0  0  0  0
    0.6107    0.4586   -0.5603 C   0  0  0  0  0  0  0  0  0  0  0  0
   -1.8665    0.4000    1.5411 C   0  0  2  0  0  0  0  0  0  0  0  0
   -2.9605   -0.0631    2.4043 N   0  0  0  0  0  0  0  0  0  0  0  0
   -2.3806    1.3111    0.4389 C   0  0  0  0  0  0  0  0  0  0  0  0
   -1.7404    2.3761    0.2190 O   0  0  0  0  0  0  0  0  0  0  0  0
   -3.5297    1.0134   -0.3858 N   0  0  0  0  0  0  0  0  0  0  0  0
   -4.5999    0.0817   -0.0602 C   0  0  0  0  0  0  0  0  0  0  0  0
   -5.5454    0.0983   -1.2534 C   0  0  0  0  0  0  0  0  0  0  0  0
   -5.2121    1.3680   -2.0282 C   0  0  2  0  0  0  0  0  0  0  0  0
   -5.2876    1.1515   -3.3940 F   0  0  0  0  0  0  0  0  0  0  0  0
   -3.7982    1.7498   -1.6117 C   0  0  0  0  0  0  0  0  0  0  0  0
    0.7348    0.0262   -1.5549 O   0  0  0  0  0  0  0  0  0  0  0  0
    0.4664    0.0229   -0.3237 C   0  0  0  0  0  0  0  0  0  0  0  0
    1.4971   -0.0203    0.6104 O   0  0  0  0  0  0  0  0  0  0  0  0
   -0.9568    0.0052    0.1314 C   0  0  0  0  0  0  0  0  0  0  0  0
   -1.4310   -1.2926    0.1037 F   0  0  0  0  0  0  0  0  0  0  0  0
   -1.7299    0.7916   -0.7035 F   0  0  0  0  0  0  0  0  0  0  0  0
   -1.0468    0.4952    1.4215 F   0  0  0  0  0  0  0  0  0  0  0  0
   -3.7077   -3.2098   -0.9519 H   0  0  0  0  0  0  0  0  0  0  0  0
   -2.1725   -3.8539   -1.6621 H   0  0  0  0  0  0  0  0  0  0  0  0
   -3.0460   -4.7819   -0.3921 H   0  0  0  0  0  0  0  0  0  0  0  0
   -0.5072   -3.6887    1.6449 H   0  0  0  0  0  0  0  0  0  0  0  0
   -2.1021   -3.2348    2.3931 H   0  0  0  0  0  0  0  0  0  0  0  0
   -1.9152   -4.7876    1.5182 H   0  0  0  0  0  0  0  0  0  0  0  0
   -0.7910   -1.3757    1.9715 H   0  0  0  0  0  0  0  0  0  0  0  0
    1.4475   -1.1513    2.3254 H   0  0  0  0  0  0  0  0  0  0  0  0
    3.6662   -0.3946    1.6654 H   0  0  0  0  0  0  0  0  0  0  0  0
    4.0447    1.0419   -2.6942 H   0  0  0  0  0  0  0  0  0  0  0  0
    6.3463    1.8305   -3.2121 H   0  0  0  0  0  0  0  0  0  0  0  0
    9.6002    2.6531    0.3150 H   0  0  0  0  0  0  0  0  0  0  0  0
    7.6420    1.9256    2.0193 H   0  0  0  0  0  0  0  0  0  0  0  0
    1.9774    1.4941   -1.8324 H   0  0  0  0  0  0  0  0  0  0  0  0
   -0.2249    0.7194   -1.1933 H   0  0  0  0  0  0  0  0  0  0  0  0
   -1.2160    1.0435    2.1808 H   0  0  0  0  0  0  0  0  0  0  0  0
   -2.5965   -0.1641    3.3801 H   0  0  0  0  0  0  0  0  0  0  0  0
   -3.2713   -1.0188    2.1207 H   0  0  0  0  0  0  0  0  0  0  0  0
   -4.2106   -0.9445    0.0805 H   0  0  0  0  0  0  0  0  0  0  0  0
   -5.1301    0.4251    0.8542 H   0  0  0  0  0  0  0  0  0  0  0  0
   -5.3535   -0.7932   -1.8912 H   0  0  0  0  0  0  0  0  0  0  0  0
   -6.6084    0.0905   -0.9280 H   0  0  0  0  0  0  0  0  0  0  0  0
   -5.9205    2.1763   -1.7415 H   0  0  0  0  0  0  0  0  0  0  0  0
   -3.7364    2.8456   -1.4333 H   0  0  0  0  0  0  0  0  0  0  0  0
   -3.0592    1.4537   -2.3878 H   0  0  0  0  0  0  0  0  0  0  0  0
    2.4661   -0.0282    0.3150 H   0  0  0  0  0  0  0  0  0  0  0  0
  1  2  1  0
  2  3  1  0
  2  4  1  0
  4  5  2  0
  4  6  1  0
  6  7  1  0
  7  8  2  0
  8  9  1  0
  9 10  2  0
 10 11  1  0
 11 12  1  0
 12 13  2  0
 13 14  1  0
 14 15  1  0
 15 16  2  0
 16 17  1  0
 17 18  2  0
 18 19  1  0
 10 20  1  0
 20 21  2  0
  6 22  1  0
 22 23  1  0
 22 24  1  0
 24 25  2  0
 24 26  1  0
 26 27  1  0
 27 28  1  0
 28 29  1  0
 29 30  1  0
 29 31  1  0
 32 33  2  0
 33 34  1  0
 33 35  1  0
 35 36  1  0
 35 37  1  0
 35 38  1  0
 21  7  1  0
 31 26  1  0
 19 11  2  0
 18 14  1  0
  1 39  1  0
  1 40  1  0
  1 41  1  0
  3 42  1  0
  3 43  1  0
  3 44  1  0
  6 45  1  1
  8 46  1  0
  9 47  1  0
 12 48  1  0
 13 49  1  0
 16 50  1  0
 17 51  1  0
 20 52  1  0
 21 53  1  0
 22 54  1  1
 23 55  1  0
 23 56  1  0
 27 57  1  0
 27 58  1  0
 28 59  1  0
 28 60  1  0
 29 61  1  1
 31 62  1  0
 31 63  1  0
 34 64  1  0
M  END
$$$$
