
     RDKit          3D

 55 58  0  0  0  0  0  0  0  0999 V2000
   -2.0362   -2.4197   -1.6322 N   0  0  0  0  0  0  0  0  0  0  0  0
   -2.6477   -1.3469   -0.8386 C   0  0  2  0  0  0  0  0  0  0  0  0
   -3.3011   -0.3639   -1.7887 C   0  0  0  0  0  0  0  0  0  0  0  0
   -2.6118    0.1061   -2.7357 O   0  0  0  0  0  0  0  0  0  0  0  0
   -4.6578    0.0941   -1.6104 N   0  0  0  0  0  0  0  0  0  0  0  0
   -5.5986   -0.5220   -0.6839 C   0  0  0  0  0  0  0  0  0  0  0  0
   -6.9758    0.0624   -0.9515 C   0  0  0  0  0  0  0  0  0  0  0  0
   -6.7604    1.7244   -1.6429 S   0  0  0  0  0  0  0  0  0  0  0  0
   -5.1579    1.2466   -2.3471 C   0  0  0  0  0  0  0  0  0  0  0  0
   -1.6020   -0.6332    0.0712 C   0  0  1  0  0  0  0  0  0  0  0  0
   -2.2497    0.4822    0.9237 C   0  0  0  0  0  0  0  0  0  0  0  0
   -1.2060    1.2771    1.7389 C   0  0  0  0  0  0  0  0  0  0  0  0
    0.0417    0.4510    2.1441 C   0  0  2  0  0  0  0  0  0  0  0  0
    1.1272    0.6149    1.1672 N   0  0  0  0  0  0  0  0  0  0  0  0
    2.4674    0.1688    1.4227 C   0  0  0  0  0  0  0  0  0  0  0  0
    2.7968   -0.2136    2.5784 O   0  0  0  0  0  0  0  0  0  0  0  0
    3.4499    0.1063    0.3167 C   0  0  0  0  0  0  0  0  0  0  0  0
    3.0340   -0.4690   -0.8961 C   0  0  0  0  0  0  0  0  0  0  0  0
    3.9230   -0.6176   -1.9594 C   0  0  0  0  0  0  0  0  0  0  0  0
    5.2440   -0.1944   -1.8353 C   0  0  0  0  0  0  0  0  0  0  0  0
    5.6866    0.4009   -0.6462 C   0  0  0  0  0  0  0  0  0  0  0  0
    7.0149    0.8425   -0.5381 C   0  0  0  0  0  0  0  0  0  0  0  0
    7.4570    1.4639    0.6298 C   0  0  0  0  0  0  0  0  0  0  0  0
    6.5781    1.6597    1.6942 C   0  0  0  0  0  0  0  0  0  0  0  0
    5.2537    1.2238    1.6053 C   0  0  0  0  0  0  0  0  0  0  0  0
    4.7884    0.5685    0.4440 C   0  0  0  0  0  0  0  0  0  0  0  0
   -0.3236   -1.0351    2.2978 C   0  0  0  0  0  0  0  0  0  0  0  0
   -0.8603   -1.6472    0.9877 C   0  0  0  0  0  0  0  0  0  0  0  0
   -1.1311   -2.0894   -2.0407 H   0  0  0  0  0  0  0  0  0  0  0  0
   -1.8278   -3.2370   -1.0145 H   0  0  0  0  0  0  0  0  0  0  0  0
   -3.4131   -1.8080   -0.1811 H   0  0  0  0  0  0  0  0  0  0  0  0
   -5.6326   -1.6220   -0.8397 H   0  0  0  0  0  0  0  0  0  0  0  0
   -5.2885   -0.2993    0.3598 H   0  0  0  0  0  0  0  0  0  0  0  0
   -7.5121   -0.5616   -1.6984 H   0  0  0  0  0  0  0  0  0  0  0  0
   -7.5748    0.1084   -0.0177 H   0  0  0  0  0  0  0  0  0  0  0  0
   -4.4552    2.1007   -2.2459 H   0  0  0  0  0  0  0  0  0  0  0  0
   -5.2816    0.9842   -3.4189 H   0  0  0  0  0  0  0  0  0  0  0  0
   -0.8508   -0.1538   -0.5948 H   0  0  0  0  0  0  0  0  0  0  0  0
   -2.8043    1.1993    0.2820 H   0  0  0  0  0  0  0  0  0  0  0  0
   -2.9861    0.0226    1.6197 H   0  0  0  0  0  0  0  0  0  0  0  0
   -1.7045    1.6504    2.6604 H   0  0  0  0  0  0  0  0  0  0  0  0
   -0.8962    2.1802    1.1688 H   0  0  0  0  0  0  0  0  0  0  0  0
    0.3958    0.8337    3.1272 H   0  0  0  0  0  0  0  0  0  0  0  0
    0.9409    1.0992    0.2598 H   0  0  0  0  0  0  0  0  0  0  0  0
    2.0189   -0.8303   -1.0130 H   0  0  0  0  0  0  0  0  0  0  0  0
    3.5875   -1.0728   -2.8824 H   0  0  0  0  0  0  0  0  0  0  0  0
    5.9189   -0.3246   -2.6731 H   0  0  0  0  0  0  0  0  0  0  0  0
    7.7092    0.7132   -1.3601 H   0  0  0  0  0  0  0  0  0  0  0  0
    8.4814    1.8053    0.7056 H   0  0  0  0  0  0  0  0  0  0  0  0
    6.9226    2.1582    2.5912 H   0  0  0  0  0  0  0  0  0  0  0  0
    4.6026    1.4261    2.4433 H   0  0  0  0  0  0  0  0  0  0  0  0
    0.5548   -1.6184    2.6471 H   0  0  0  0  0  0  0  0  0  0  0  0
   -1.1024   -1.1264    3.0873 H   0  0  0  0  0  0  0  0  0  0  0  0
   -1.5361   -2.4861    1.2642 H   0  0  0  0  0  0  0  0  0  0  0  0
   -0.0091   -2.0827    0.4196 H   0  0  0  0  0  0  0  0  0  0  0  0
  1  2  1  0
  2  3  1  0
  3  4  2  0
  3  5  1  0
  5  6  1  0
  6  7  1  0
  7  8  1  0
  8  9  1  0
  2 10  1  0
 10 11  1  0
 11 12  1  0
 12 13  1  0
 13 14  1  0
 14 15  1  0
 15 16  2  0
 15 17  1  0
 17 18  2  0
 18 19  1  0
 19 20  2  0
 20 21  1  0
 21 22  2  0
 22 23  1  0
 23 24  2  0
 24 25  1  0
 25 26  2  0
 13 27  1  0
 27 28  1  0
  9  5  1  0
 28 10  1  0
 26 17  1  0
 26 21  1  0
  1 29  1  0
  1 30  1  0
  2 31  1  1
  6 32  1  0
  6 33  1  0
  7 34  1  0
  7 35  1  0
  9 36  1  0
  9 37  1  0
 10 38  1  6
 11 39  1  0
 11 40  1  0
 12 41  1  0
 12 42  1  0
 13 43  1  1
 14 44  1  0
 18 45  1  0
 19 46  1  0
 20 47  1  0
 22 48  1  0
 23 49  1  0
 24 50  1  0
 25 51  1  0
 27 52  1  0
 27 53  1  0
 28 54  1  0
 28 55  1  0
M  END
$$$$
