
     RDKit          3D

 69 70  0  0  0  0  0  0  0  0999 V2000
    8.6992   -2.0518    2.5637 C   0  0  0  0  0  0  0  0  0  0  0  0
    7.9774   -1.2693    1.6205 O   0  0  0  0  0  0  0  0  0  0  0  0
    7.5135    0.0174    1.9085 C   0  0  0  0  0  0  0  0  0  0  0  0
    7.7126    0.5356    3.0413 O   0  0  0  0  0  0  0  0  0  0  0  0
    6.7307    0.7641    0.8773 C   0  0  0  0  0  0  0  0  0  0  0  0
    5.2780    0.3865    0.9614 C   0  0  0  0  0  0  0  0  0  0  0  0
    4.4085    1.0986    1.8025 C   0  0  0  0  0  0  0  0  0  0  0  0
    3.0644    0.7284    1.9044 C   0  0  0  0  0  0  0  0  0  0  0  0
    2.5746   -0.3675    1.1768 C   0  0  0  0  0  0  0  0  0  0  0  0
    1.1230   -0.7544    1.2575 C   0  0  0  0  0  0  0  0  0  0  0  0
    0.4470   -0.4373    0.0022 N   0  0  0  0  0  0  0  0  0  0  0  0
    0.1618    0.9104   -0.3981 C   0  0  0  0  0  0  0  0  0  0  0  0
    0.4480    1.8731    0.3655 O   0  0  0  0  0  0  0  0  0  0  0  0
   -0.4440    1.1819   -1.7512 C   0  0  2  0  0  0  0  0  0  0  0  0
    0.6226    1.6600   -2.7310 C   0  0  0  0  0  0  0  0  0  0  0  0
    0.7014    3.4699   -2.6351 S   0  0  0  0  0  0  0  0  0  0  0  0
   -1.0484    3.5451   -2.1510 C   0  0  0  0  0  0  0  0  0  0  0  0
   -1.4532    2.2349   -1.6550 N   0  0  0  0  0  0  0  0  0  0  0  0
   -2.7731    2.0311   -1.1053 C   0  0  0  0  0  0  0  0  0  0  0  0
   -3.5635    3.0092   -1.0069 O   0  0  0  0  0  0  0  0  0  0  0  0
   -3.2645    0.6701   -0.6860 C   0  0  0  0  0  0  0  0  0  0  0  0
   -3.9102   -0.0795   -1.8681 C   0  0  0  0  0  0  0  0  0  0  0  0
   -5.1308    0.6058   -2.3062 N   0  0  0  0  0  0  0  0  0  0  0  0
   -4.1660   -1.5735   -1.5467 C   0  0  0  0  0  0  0  0  0  0  0  0
   -5.1212   -1.8003   -0.3960 C   0  0  0  0  0  0  0  0  0  0  0  0
   -6.5050   -1.8682   -0.6360 C   0  0  0  0  0  0  0  0  0  0  0  0
   -7.3978   -2.0650    0.4213 C   0  0  0  0  0  0  0  0  0  0  0  0
   -6.9188   -2.2013    1.7259 C   0  0  0  0  0  0  0  0  0  0  0  0
   -5.5456   -2.1450    1.9755 C   0  0  0  0  0  0  0  0  0  0  0  0
   -4.6461   -1.9482    0.9224 C   0  0  0  0  0  0  0  0  0  0  0  0
   -3.3162   -1.9117    1.1900 F   0  0  0  0  0  0  0  0  0  0  0  0
    3.4458   -1.0849    0.3429 C   0  0  0  0  0  0  0  0  0  0  0  0
    4.7898   -0.7149    0.2408 C   0  0  0  0  0  0  0  0  0  0  0  0
    0.7880    0.1842   -1.5177 O   0  0  0  0  0  0  0  0  0  0  0  0
    0.4778    0.0339   -0.3056 C   0  0  0  0  0  0  0  0  0  0  0  0
    1.4707   -0.2059    0.6395 O   0  0  0  0  0  0  0  0  0  0  0  0
   -0.9584    0.0537    0.1067 C   0  0  0  0  0  0  0  0  0  0  0  0
   -1.5149   -1.1926   -0.1099 F   0  0  0  0  0  0  0  0  0  0  0  0
   -1.6494    0.9970   -0.6322 F   0  0  0  0  0  0  0  0  0  0  0  0
   -1.0606    0.3706    1.4490 F   0  0  0  0  0  0  0  0  0  0  0  0
    8.9581   -3.0281    2.1052 H   0  0  0  0  0  0  0  0  0  0  0  0
    9.6359   -1.5300    2.8531 H   0  0  0  0  0  0  0  0  0  0  0  0
    8.0754   -2.2315    3.4649 H   0  0  0  0  0  0  0  0  0  0  0  0
    7.1317    0.5269   -0.1319 H   0  0  0  0  0  0  0  0  0  0  0  0
    6.8549    1.8589    1.0283 H   0  0  0  0  0  0  0  0  0  0  0  0
    4.7715    1.9410    2.3783 H   0  0  0  0  0  0  0  0  0  0  0  0
    2.4071    1.2972    2.5503 H   0  0  0  0  0  0  0  0  0  0  0  0
    1.0519   -1.8474    1.4475 H   0  0  0  0  0  0  0  0  0  0  0  0
    0.6091   -0.2424    2.1002 H   0  0  0  0  0  0  0  0  0  0  0  0
    0.1700   -1.2257   -0.6253 H   0  0  0  0  0  0  0  0  0  0  0  0
   -0.8978    0.2536   -2.1587 H   0  0  0  0  0  0  0  0  0  0  0  0
    0.3264    1.3835   -3.7658 H   0  0  0  0  0  0  0  0  0  0  0  0
    1.6195    1.2154   -2.5199 H   0  0  0  0  0  0  0  0  0  0  0  0
   -1.1688    4.3094   -1.3545 H   0  0  0  0  0  0  0  0  0  0  0  0
   -1.6645    3.8200   -3.0330 H   0  0  0  0  0  0  0  0  0  0  0  0
   -4.0048    0.7903    0.1348 H   0  0  0  0  0  0  0  0  0  0  0  0
   -2.4264    0.0766   -0.2706 H   0  0  0  0  0  0  0  0  0  0  0  0
   -3.1925   -0.0602   -2.7178 H   0  0  0  0  0  0  0  0  0  0  0  0
   -5.8206    0.6425   -1.5217 H   0  0  0  0  0  0  0  0  0  0  0  0
   -5.5638    0.0674   -3.0914 H   0  0  0  0  0  0  0  0  0  0  0  0
   -4.5612   -2.0760   -2.4567 H   0  0  0  0  0  0  0  0  0  0  0  0
   -3.1940   -2.0691   -1.3319 H   0  0  0  0  0  0  0  0  0  0  0  0
   -6.8926   -1.7653   -1.6420 H   0  0  0  0  0  0  0  0  0  0  0  0
   -8.4618   -2.1122    0.2286 H   0  0  0  0  0  0  0  0  0  0  0  0
   -7.6115   -2.3540    2.5434 H   0  0  0  0  0  0  0  0  0  0  0  0
   -5.1776   -2.2567    2.9873 H   0  0  0  0  0  0  0  0  0  0  0  0
    3.0826   -1.9305   -0.2283 H   0  0  0  0  0  0  0  0  0  0  0  0
    5.4498   -1.2861   -0.4003 H   0  0  0  0  0  0  0  0  0  0  0  0
    2.4467   -0.2410    0.3703 H   0  0  0  0  0  0  0  0  0  0  0  0
  1  2  1  0
  2  3  1  0
  3  4  2  0
  3  5  1  0
  5  6  1  0
  6  7  2  0
  7  8  1  0
  8  9  2  0
  9 10  1  0
 10 11  1  0
 11 12  1  0
 12 13  2  0
 12 14  1  0
 14 15  1  0
 15 16  1  0
 16 17  1  0
 17 18  1  0
 18 19  1  0
 19 20  2  0
 19 21  1  0
 21 22  1  0
 22 23  1  0
 22 24  1  0
 24 25  1  0
 25 26  2  0
 26 27  1  0
 27 28  2  0
 28 29  1  0
 29 30  2  0
 30 31  1  0
  9 32  1  0
 32 33  2  0
 34 35  2  0
 35 36  1  0
 35 37  1  0
 37 38  1  0
 37 39  1  0
 37 40  1  0
 33  6  1  0
 18 14  1  0
 30 25  1  0
  1 41  1  0
  1 42  1  0
  1 43  1  0
  5 44  1  0
  5 45  1  0
  7 46  1  0
  8 47  1  0
 10 48  1  0
 10 49  1  0
 11 50  1  0
 14 51  1  6
 15 52  1  0
 15 53  1  0
 17 54  1  0
 17 55  1  0
 21 56  1  0
 21 57  1  0
 22 58  1  0
 23 59  1  0
 23 60  1  0
 24 61  1  0
 24 62  1  0
 26 63  1  0
 27 64  1  0
 28 65  1  0
 29 66  1  0
 32 67  1  0
 33 68  1  0
 36 69  1  0
M  END
$$$$
