
     RDKit          3D

 46 46  0  0  0  0  0  0  0  0999 V2000
   -0.9279    0.5510    1.8132 C   0  0  0  0  0  0  0  0  0  0  0  0
   -2.3396    0.0335    1.4705 C   0  0  0  0  0  0  0  0  0  0  0  0
   -3.1644    1.1764    0.8334 C   0  0  0  0  0  0  0  0  0  0  0  0
   -3.0361   -0.3488    2.7981 C   0  0  0  0  0  0  0  0  0  0  0  0
   -2.3202   -1.2509    0.5603 C   0  0  0  0  0  0  0  0  0  0  0  0
   -1.3728   -1.3424   -0.6899 C   0  0  0  0  0  0  0  0  0  0  0  0
   -1.6628   -2.7006   -1.3809 C   0  0  0  0  0  0  0  0  0  0  0  0
   -1.6788   -0.2085   -1.6946 C   0  0  0  0  0  0  0  0  0  0  0  0
    0.0392   -1.2847   -0.2340 N   0  0  0  0  0  0  0  0  0  0  0  0
    1.0590   -1.4756   -1.2773 C   0  0  0  0  0  0  0  0  0  0  0  0
    2.3966   -1.0712   -0.7301 C   0  0  0  0  0  0  0  0  0  0  0  0
    3.1951   -1.9684   -0.3460 O   0  0  0  0  0  0  0  0  0  0  0  0
    2.7468    0.3163   -0.5635 N   0  0  0  0  0  0  0  0  0  0  0  0
    2.1125    1.4009   -1.2948 C   0  0  0  0  0  0  0  0  0  0  0  0
    2.9904    2.6235   -1.0653 C   0  0  0  0  0  0  0  0  0  0  0  0
    3.8573    2.2965    0.1474 C   0  0  0  0  0  0  0  0  0  0  0  0
    3.8612    0.7700    0.2564 C   0  0  1  0  0  0  0  0  0  0  0  0
    3.6885    0.3382    1.6541 C   0  0  0  0  0  0  0  0  0  0  0  0
    3.5513   -0.0018    2.7517 N   0  0  0  0  0  0  0  0  0  0  0  0
   -0.9843    1.3771    2.5548 H   0  0  0  0  0  0  0  0  0  0  0  0
   -0.3069   -0.2596    2.2508 H   0  0  0  0  0  0  0  0  0  0  0  0
   -0.4203    0.9573    0.9159 H   0  0  0  0  0  0  0  0  0  0  0  0
   -3.3611    1.9785    1.5776 H   0  0  0  0  0  0  0  0  0  0  0  0
   -4.1448    0.8025    0.4681 H   0  0  0  0  0  0  0  0  0  0  0  0
   -2.6323    1.6613   -0.0051 H   0  0  0  0  0  0  0  0  0  0  0  0
   -4.0644   -0.7256    2.6066 H   0  0  0  0  0  0  0  0  0  0  0  0
   -3.1104    0.5264    3.4798 H   0  0  0  0  0  0  0  0  0  0  0  0
   -2.4674   -1.1429    3.3293 H   0  0  0  0  0  0  0  0  0  0  0  0
   -3.3653   -1.4431    0.2277 H   0  0  0  0  0  0  0  0  0  0  0  0
   -2.0671   -2.1210    1.2079 H   0  0  0  0  0  0  0  0  0  0  0  0
   -2.7411   -2.7898   -1.6354 H   0  0  0  0  0  0  0  0  0  0  0  0
   -1.0941   -2.8080   -2.3284 H   0  0  0  0  0  0  0  0  0  0  0  0
   -1.3894   -3.5454   -0.7127 H   0  0  0  0  0  0  0  0  0  0  0  0
   -1.1756    0.7314   -1.3938 H   0  0  0  0  0  0  0  0  0  0  0  0
   -1.3158   -0.4571   -2.7141 H   0  0  0  0  0  0  0  0  0  0  0  0
   -2.7734   -0.0393   -1.7792 H   0  0  0  0  0  0  0  0  0  0  0  0
    0.1939   -2.0235    0.4934 H   0  0  0  0  0  0  0  0  0  0  0  0
    0.8440   -0.8707   -2.1787 H   0  0  0  0  0  0  0  0  0  0  0  0
    1.1019   -2.5438   -1.5848 H   0  0  0  0  0  0  0  0  0  0  0  0
    1.0917    1.5747   -0.8959 H   0  0  0  0  0  0  0  0  0  0  0  0
    2.0633    1.1661   -2.3801 H   0  0  0  0  0  0  0  0  0  0  0  0
    3.6420    2.7865   -1.9521 H   0  0  0  0  0  0  0  0  0  0  0  0
    2.3772    3.5346   -0.8923 H   0  0  0  0  0  0  0  0  0  0  0  0
    3.4037    2.7711    1.0475 H   0  0  0  0  0  0  0  0  0  0  0  0
    4.8887    2.6912    0.0185 H   0  0  0  0  0  0  0  0  0  0  0  0
    4.8116    0.3575   -0.1469 H   0  0  0  0  0  0  0  0  0  0  0  0
  1  2  1  0
  2  3  1  0
  2  4  1  0
  2  5  1  0
  5  6  1  0
  6  7  1  0
  6  8  1  0
  6  9  1  0
  9 10  1  0
 10 11  1  0
 11 12  2  0
 11 13  1  0
 13 14  1  0
 14 15  1  0
 15 16  1  0
 16 17  1  0
 17 18  1  0
 18 19  3  0
 17 13  1  0
  1 20  1  0
  1 21  1  0
  1 22  1  0
  3 23  1  0
  3 24  1  0
  3 25  1  0
  4 26  1  0
  4 27  1  0
  4 28  1  0
  5 29  1  0
  5 30  1  0
  7 31  1  0
  7 32  1  0
  7 33  1  0
  8 34  1  0
  8 35  1  0
  8 36  1  0
  9 37  1  0
 10 38  1  0
 10 39  1  0
 14 40  1  0
 14 41  1  0
 15 42  1  0
 15 43  1  0
 16 44  1  0
 16 45  1  0
 17 46  1  6
M  END
$$$$
