
     RDKit          3D

 43 45  0  0  0  0  0  0  0  0999 V2000
   -1.6558    1.6758   -0.9065 N   0  0  0  0  0  0  0  0  0  0  0  0
   -1.2959    0.2817   -0.6247 C   0  0  1  0  0  0  0  0  0  0  0  0
   -1.0256    0.0523    0.8808 C   0  0  0  0  0  0  0  0  0  0  0  0
    0.1880    0.8158    1.3454 C   0  0  0  0  0  0  0  0  0  0  0  0
    0.0059    1.8951    1.9729 O   0  0  0  0  0  0  0  0  0  0  0  0
    1.5332    0.3707    1.0510 N   0  0  0  0  0  0  0  0  0  0  0  0
    2.6602    1.2888    1.3232 C   0  0  0  0  0  0  0  0  0  0  0  0
    3.7980    1.0907    0.3158 C   0  0  0  0  0  0  0  0  0  0  0  0
    4.0874   -0.3305    0.1921 N   0  0  0  0  0  0  0  0  0  0  0  0
    3.1980   -1.3125    0.3700 C   0  0  0  0  0  0  0  0  0  0  0  0
    3.7222   -2.5174    0.0758 N   0  0  0  0  0  0  0  0  0  0  0  0
    4.9741   -2.3024   -0.3108 N   0  0  0  0  0  0  0  0  0  0  0  0
    5.1855   -0.9704   -0.2509 C   0  0  0  0  0  0  0  0  0  0  0  0
    6.4741   -0.3071   -0.6293 C   0  0  0  0  0  0  0  0  0  0  0  0
    7.0340    0.2860    0.4865 F   0  0  0  0  0  0  0  0  0  0  0  0
    7.3602   -1.2401   -1.1367 F   0  0  0  0  0  0  0  0  0  0  0  0
    6.2371    0.6572   -1.5912 F   0  0  0  0  0  0  0  0  0  0  0  0
    1.7834   -1.0640    0.7881 C   0  0  0  0  0  0  0  0  0  0  0  0
   -2.3741   -0.6764   -1.1769 C   0  0  0  0  0  0  0  0  0  0  0  0
   -3.7412   -0.4773   -0.5567 C   0  0  0  0  0  0  0  0  0  0  0  0
   -4.1340   -1.2294    0.5687 C   0  0  0  0  0  0  0  0  0  0  0  0
   -3.3062   -2.1622    1.1038 F   0  0  0  0  0  0  0  0  0  0  0  0
   -5.3906   -1.0274    1.1474 C   0  0  0  0  0  0  0  0  0  0  0  0
   -6.2672   -0.0820    0.6121 C   0  0  0  0  0  0  0  0  0  0  0  0
   -5.8928    0.6634   -0.5079 C   0  0  0  0  0  0  0  0  0  0  0  0
   -6.7504    1.5767   -1.0271 F   0  0  0  0  0  0  0  0  0  0  0  0
   -4.6374    0.4686   -1.0942 C   0  0  0  0  0  0  0  0  0  0  0  0
   -4.2978    1.1990   -2.1870 F   0  0  0  0  0  0  0  0  0  0  0  0
   -0.8057    2.2741   -0.7920 H   0  0  0  0  0  0  0  0  0  0  0  0
   -2.3627    2.0073   -0.2104 H   0  0  0  0  0  0  0  0  0  0  0  0
   -0.3618    0.0499   -1.1840 H   0  0  0  0  0  0  0  0  0  0  0  0
   -0.8861   -1.0290    1.0869 H   0  0  0  0  0  0  0  0  0  0  0  0
   -1.9082    0.3734    1.4759 H   0  0  0  0  0  0  0  0  0  0  0  0
    3.0398    1.0991    2.3506 H   0  0  0  0  0  0  0  0  0  0  0  0
    2.3342    2.3500    1.2639 H   0  0  0  0  0  0  0  0  0  0  0  0
    4.6998    1.6388    0.6625 H   0  0  0  0  0  0  0  0  0  0  0  0
    3.4921    1.4879   -0.6759 H   0  0  0  0  0  0  0  0  0  0  0  0
    1.1342   -1.4182   -0.0385 H   0  0  0  0  0  0  0  0  0  0  0  0
    1.5615   -1.6539    1.7025 H   0  0  0  0  0  0  0  0  0  0  0  0
   -2.4442   -0.5391   -2.2781 H   0  0  0  0  0  0  0  0  0  0  0  0
   -2.0394   -1.7265   -1.0296 H   0  0  0  0  0  0  0  0  0  0  0  0
   -5.6870   -1.6064    2.0127 H   0  0  0  0  0  0  0  0  0  0  0  0
   -7.2389    0.0699    1.0642 H   0  0  0  0  0  0  0  0  0  0  0  0
  1  2  1  0
  2  3  1  0
  3  4  1  0
  4  5  2  0
  4  6  1  0
  6  7  1  0
  7  8  1  0
  8  9  1  0
  9 10  1  0
 10 11  2  0
 11 12  1  0
 12 13  2  0
 13 14  1  0
 14 15  1  0
 14 16  1  0
 14 17  1  0
 10 18  1  0
  2 19  1  0
 19 20  1  0
 20 21  2  0
 21 22  1  0
 21 23  1  0
 23 24  2  0
 24 25  1  0
 25 26  1  0
 25 27  2  0
 27 28  1  0
 18  6  1  0
 27 20  1  0
 13  9  1  0
  1 29  1  0
  1 30  1  0
  2 31  1  6
  3 32  1  0
  3 33  1  0
  7 34  1  0
  7 35  1  0
  8 36  1  0
  8 37  1  0
 18 38  1  0
 18 39  1  0
 19 40  1  0
 19 41  1  0
 23 42  1  0
 24 43  1  0
M  END
$$$$
