
     RDKit          3D

 57 56  0  0  0  0  0  0  0  0999 V2000
    6.3685   -0.8895   -0.3554 C   0  0  0  0  0  0  0  0  0  0  0  0
    4.9174   -0.5469   -0.1935 C   0  0  0  0  0  0  0  0  0  0  0  0
    4.2983   -0.6675    1.0603 C   0  0  0  0  0  0  0  0  0  0  0  0
    2.9375   -0.3832    1.2042 C   0  0  0  0  0  0  0  0  0  0  0  0
    2.1793    0.0146    0.0939 C   0  0  0  0  0  0  0  0  0  0  0  0
    0.7380    0.3179    0.2474 C   0  0  0  0  0  0  0  0  0  0  0  0
    0.3251    1.6485    0.5135 C   0  0  0  0  0  0  0  0  0  0  0  0
    1.3472    2.7672    0.6531 C   0  0  0  0  0  0  0  0  0  0  0  0
    1.9685    2.7631    2.0157 C   0  0  0  0  0  0  0  0  0  0  0  0
    1.2484    2.8813    3.0431 O   0  0  0  0  0  0  0  0  0  0  0  0
    3.3490    2.6480    2.1462 O   0  0  0  0  0  0  0  0  0  0  0  0
   -1.0528    1.8988    0.6938 C   0  0  0  0  0  0  0  0  0  0  0  0
   -1.5939    3.2634    1.0116 C   0  0  0  0  0  0  0  0  0  0  0  0
   -1.9434    0.8891    0.5437 N   0  0  0  0  0  0  0  0  0  0  0  0
   -1.5996   -0.3854    0.2357 C   0  0  0  0  0  0  0  0  0  0  0  0
   -2.6944   -1.4379    0.1101 C   0  0  0  0  0  0  0  0  0  0  0  0
   -4.1175   -0.9525   -0.3186 C   0  0  0  0  0  0  0  0  0  0  0  0
   -4.9871   -2.2040   -0.5771 C   0  0  0  0  0  0  0  0  0  0  0  0
   -4.0551   -0.1321   -1.6252 C   0  0  0  0  0  0  0  0  0  0  0  0
   -4.8029   -0.1264    0.7947 C   0  0  0  0  0  0  0  0  0  0  0  0
   -0.2250   -0.7200    0.1345 C   0  0  0  0  0  0  0  0  0  0  0  0
    0.2059   -2.1537   -0.1332 C   0  0  0  0  0  0  0  0  0  0  0  0
    0.1193   -2.4455   -1.5605 N   0  0  0  0  0  0  0  0  0  0  0  0
    2.7910    0.1164   -1.1633 C   0  0  0  0  0  0  0  0  0  0  0  0
    4.1517   -0.1689   -1.3075 C   0  0  0  0  0  0  0  0  0  0  0  0
    0.6878    0.0000    0.0000 Cl  0  0  0  0  0  0  0  0  0  0  0  0
    0.6878    0.0000    0.0000 Cl  0  0  0  0  0  0  0  0  0  0  0  0
    6.9302   -0.6651    0.5764 H   0  0  0  0  0  0  0  0  0  0  0  0
    6.8212   -0.2980   -1.1796 H   0  0  0  0  0  0  0  0  0  0  0  0
    6.4688   -1.9703   -0.5876 H   0  0  0  0  0  0  0  0  0  0  0  0
    4.8690   -0.9801    1.9260 H   0  0  0  0  0  0  0  0  0  0  0  0
    2.4731   -0.4730    2.1786 H   0  0  0  0  0  0  0  0  0  0  0  0
    2.1398    2.6598   -0.1167 H   0  0  0  0  0  0  0  0  0  0  0  0
    0.9014    3.7645    0.4657 H   0  0  0  0  0  0  0  0  0  0  0  0
    3.7859    2.6422    3.0600 H   0  0  0  0  0  0  0  0  0  0  0  0
   -2.6807    3.2078    1.2358 H   0  0  0  0  0  0  0  0  0  0  0  0
   -1.0841    3.6860    1.9017 H   0  0  0  0  0  0  0  0  0  0  0  0
   -1.4544    3.9366    0.1401 H   0  0  0  0  0  0  0  0  0  0  0  0
   -2.7654   -1.9736    1.0819 H   0  0  0  0  0  0  0  0  0  0  0  0
   -2.3744   -2.1848   -0.6463 H   0  0  0  0  0  0  0  0  0  0  0  0
   -6.0177   -1.9178   -0.8804 H   0  0  0  0  0  0  0  0  0  0  0  0
   -5.0569   -2.8284    0.3401 H   0  0  0  0  0  0  0  0  0  0  0  0
   -4.5544   -2.8269   -1.3899 H   0  0  0  0  0  0  0  0  0  0  0  0
   -3.5376   -0.7084   -2.4222 H   0  0  0  0  0  0  0  0  0  0  0  0
   -5.0792    0.1136   -1.9806 H   0  0  0  0  0  0  0  0  0  0  0  0
   -3.5147    0.8255   -1.4818 H   0  0  0  0  0  0  0  0  0  0  0  0
   -5.8762    0.0349    0.5550 H   0  0  0  0  0  0  0  0  0  0  0  0
   -4.7436   -0.6571    1.7691 H   0  0  0  0  0  0  0  0  0  0  0  0
   -4.3548    0.8791    0.9111 H   0  0  0  0  0  0  0  0  0  0  0  0
    1.2354   -2.3575    0.2293 H   0  0  0  0  0  0  0  0  0  0  0  0
   -0.4388   -2.8595    0.4327 H   0  0  0  0  0  0  0  0  0  0  0  0
    0.8700   -1.9083   -2.0514 H   0  0  0  0  0  0  0  0  0  0  0  0
    0.3434   -3.4582   -1.6933 H   0  0  0  0  0  0  0  0  0  0  0  0
    2.2132    0.4159   -2.0290 H   0  0  0  0  0  0  0  0  0  0  0  0
    4.6082   -0.0935   -2.2867 H   0  0  0  0  0  0  0  0  0  0  0  0
   -0.6878    0.0000    0.0000 H   0  0  0  0  0  0  0  0  0  0  0  0
   -0.6878    0.0000    0.0000 H   0  0  0  0  0  0  0  0  0  0  0  0
  1  2  1  0
  2  3  2  0
  3  4  1  0
  4  5  2  0
  5  6  1  0
  6  7  2  0
  7  8  1  0
  8  9  1  0
  9 10  2  0
  9 11  1  0
  7 12  1  0
 12 13  1  0
 12 14  2  0
 14 15  1  0
 15 16  1  0
 16 17  1  0
 17 18  1  0
 17 19  1  0
 17 20  1  0
 15 21  2  0
 21 22  1  0
 22 23  1  0
  5 24  1  0
 24 25  2  0
 25  2  1  0
 21  6  1  0
  1 28  1  0
  1 29  1  0
  1 30  1  0
  3 31  1  0
  4 32  1  0
  8 33  1  0
  8 34  1  0
 11 35  1  0
 13 36  1  0
 13 37  1  0
 13 38  1  0
 16 39  1  0
 16 40  1  0
 18 41  1  0
 18 42  1  0
 18 43  1  0
 19 44  1  0
 19 45  1  0
 19 46  1  0
 20 47  1  0
 20 48  1  0
 20 49  1  0
 22 50  1  0
 22 51  1  0
 23 52  1  0
 23 53  1  0
 24 54  1  0
 25 55  1  0
 26 56  1  0
 27 57  1  0
M  END
$$$$
