
     RDKit          3D

 58 59  0  0  0  0  0  0  0  0999 V2000
   -2.2105    1.3866   -2.0598 C   0  0  0  0  0  0  0  0  0  0  0  0
   -1.6133   -0.0308   -2.0661 C   0  0  1  0  0  0  0  0  0  0  0  0
   -0.2070   -0.0657   -1.4827 C   0  0  0  0  0  0  0  0  0  0  0  0
    0.7866   -0.8298   -2.1182 C   0  0  0  0  0  0  0  0  0  0  0  0
    2.0760   -0.9080   -1.5857 C   0  0  0  0  0  0  0  0  0  0  0  0
    2.4000   -0.2340   -0.3961 C   0  0  0  0  0  0  0  0  0  0  0  0
    3.7699   -0.3207    0.1713 C   0  0  0  0  0  0  0  0  0  0  0  0
    4.8957   -0.2632   -0.6687 C   0  0  0  0  0  0  0  0  0  0  0  0
    6.1851   -0.3439   -0.1355 C   0  0  0  0  0  0  0  0  0  0  0  0
    6.3765   -0.5040    1.2469 C   0  0  0  0  0  0  0  0  0  0  0  0
    7.7683   -0.5416    1.8264 C   0  0  0  0  0  0  0  0  0  0  0  0
    7.7929   -1.2894    2.9909 F   0  0  0  0  0  0  0  0  0  0  0  0
    8.6563   -1.1096    0.9292 F   0  0  0  0  0  0  0  0  0  0  0  0
    8.1778    0.7478    2.1103 F   0  0  0  0  0  0  0  0  0  0  0  0
    5.2534   -0.5353    2.0900 C   0  0  0  0  0  0  0  0  0  0  0  0
    3.9637   -0.4535    1.5575 C   0  0  0  0  0  0  0  0  0  0  0  0
    1.4039    0.5174    0.2503 C   0  0  0  0  0  0  0  0  0  0  0  0
    0.1151    0.5974   -0.2831 C   0  0  0  0  0  0  0  0  0  0  0  0
   -2.5296   -1.1063   -1.4141 C   0  0  2  0  0  0  0  0  0  0  0  0
   -3.8186   -1.1941   -2.1025 N   0  0  0  0  0  0  0  0  0  0  0  0
   -2.7067   -0.9104    0.0824 C   0  0  0  0  0  0  0  0  0  0  0  0
   -1.9362   -1.5480    0.8514 O   0  0  0  0  0  0  0  0  0  0  0  0
   -3.6511    0.0175    0.6580 N   0  0  0  0  0  0  0  0  0  0  0  0
   -4.9097    0.4296    0.0539 C   0  0  0  0  0  0  0  0  0  0  0  0
   -5.5239    1.4330    1.0200 C   0  0  0  0  0  0  0  0  0  0  0  0
   -4.8156    1.2103    2.3520 C   0  0  2  0  0  0  0  0  0  0  0  0
   -4.5967    2.4114    3.0057 F   0  0  0  0  0  0  0  0  0  0  0  0
   -3.4990    0.5232    2.0133 C   0  0  0  0  0  0  0  0  0  0  0  0
    0.7447   -0.0275   -1.5502 O   0  0  0  0  0  0  0  0  0  0  0  0
    0.4689    0.0014   -0.3209 C   0  0  0  0  0  0  0  0  0  0  0  0
    1.4919   -0.0577    0.6207 O   0  0  0  0  0  0  0  0  0  0  0  0
   -0.9569    0.0391    0.1249 C   0  0  0  0  0  0  0  0  0  0  0  0
   -1.4733   -1.2428    0.1183 F   0  0  0  0  0  0  0  0  0  0  0  0
   -1.6986    0.8345   -0.7298 F   0  0  0  0  0  0  0  0  0  0  0  0
   -1.0386    0.5560    1.4050 F   0  0  0  0  0  0  0  0  0  0  0  0
   -2.4364    1.7374   -1.0332 H   0  0  0  0  0  0  0  0  0  0  0  0
   -3.1451    1.4093   -2.6586 H   0  0  0  0  0  0  0  0  0  0  0  0
   -1.4961    2.0992   -2.5248 H   0  0  0  0  0  0  0  0  0  0  0  0
   -1.5288   -0.2992   -3.1438 H   0  0  0  0  0  0  0  0  0  0  0  0
    0.5625   -1.3735   -3.0276 H   0  0  0  0  0  0  0  0  0  0  0  0
    2.8148   -1.5149   -2.0940 H   0  0  0  0  0  0  0  0  0  0  0  0
    4.7798   -0.1325   -1.7374 H   0  0  0  0  0  0  0  0  0  0  0  0
    7.0336   -0.2757   -0.8047 H   0  0  0  0  0  0  0  0  0  0  0  0
    5.3722   -0.6246    3.1626 H   0  0  0  0  0  0  0  0  0  0  0  0
    3.1171   -0.5072    2.2304 H   0  0  0  0  0  0  0  0  0  0  0  0
    1.6242    1.0552    1.1639 H   0  0  0  0  0  0  0  0  0  0  0  0
   -0.6281    1.1730    0.2509 H   0  0  0  0  0  0  0  0  0  0  0  0
   -2.0158   -2.0867   -1.5552 H   0  0  0  0  0  0  0  0  0  0  0  0
   -3.6453   -1.4265   -3.1076 H   0  0  0  0  0  0  0  0  0  0  0  0
   -4.3458   -2.0071   -1.7076 H   0  0  0  0  0  0  0  0  0  0  0  0
   -5.5760   -0.4530   -0.0572 H   0  0  0  0  0  0  0  0  0  0  0  0
   -4.7483    0.9115   -0.9305 H   0  0  0  0  0  0  0  0  0  0  0  0
   -5.3259    2.4658    0.6565 H   0  0  0  0  0  0  0  0  0  0  0  0
   -6.6214    1.2844    1.1154 H   0  0  0  0  0  0  0  0  0  0  0  0
   -5.4327    0.5453    2.9957 H   0  0  0  0  0  0  0  0  0  0  0  0
   -3.3089   -0.3097    2.7249 H   0  0  0  0  0  0  0  0  0  0  0  0
   -2.6530    1.2436    2.0443 H   0  0  0  0  0  0  0  0  0  0  0  0
    2.4619   -0.1029    0.3320 H   0  0  0  0  0  0  0  0  0  0  0  0
  1  2  1  0
  2  3  1  0
  3  4  2  0
  4  5  1  0
  5  6  2  0
  6  7  1  0
  7  8  2  0
  8  9  1  0
  9 10  2  0
 10 11  1  0
 11 12  1  0
 11 13  1  0
 11 14  1  0
 10 15  1  0
 15 16  2  0
  6 17  1  0
 17 18  2  0
  2 19  1  0
 19 20  1  0
 19 21  1  0
 21 22  2  0
 21 23  1  0
 23 24  1  0
 24 25  1  0
 25 26  1  0
 26 27  1  0
 26 28  1  0
 29 30  2  0
 30 31  1  0
 30 32  1  0
 32 33  1  0
 32 34  1  0
 32 35  1  0
 18  3  1  0
 28 23  1  0
 16  7  1  0
  1 36  1  0
  1 37  1  0
  1 38  1  0
  2 39  1  6
  4 40  1  0
  5 41  1  0
  8 42  1  0
  9 43  1  0
 15 44  1  0
 16 45  1  0
 17 46  1  0
 18 47  1  0
 19 48  1  1
 20 49  1  0
 20 50  1  0
 24 51  1  0
 24 52  1  0
 25 53  1  0
 25 54  1  0
 26 55  1  1
 28 56  1  0
 28 57  1  0
 31 58  1  0
M  END
$$$$
