
     RDKit          3D

 60 62  0  0  0  0  0  0  0  0999 V2000
   -0.4126    5.5437    0.1256 C   0  0  0  0  0  0  0  0  0  0  0  0
   -0.4133    4.2767   -0.6133 N   0  0  0  0  0  0  0  0  0  0  0  0
   -0.3844    4.2914   -2.0804 C   0  0  0  0  0  0  0  0  0  0  0  0
   -0.3808    3.0387    0.1348 C   0  0  0  0  0  0  0  0  0  0  0  0
   -0.0890    3.0748    1.3620 O   0  0  0  0  0  0  0  0  0  0  0  0
   -0.7184    1.6904   -0.4975 C   0  0  1  0  0  0  0  0  0  0  0  0
    0.3749    0.6238   -0.1468 C   0  0  1  0  0  0  0  0  0  0  0  0
    0.1112   -0.7450   -0.8175 C   0  0  0  0  0  0  0  0  0  0  0  0
    1.1225   -1.8213   -0.3679 C   0  0  0  0  0  0  0  0  0  0  0  0
    2.5027   -1.2429    0.0254 C   0  0  1  0  0  0  0  0  0  0  0  0
    3.5982   -2.2863   -0.1008 C   0  0  0  0  0  0  0  0  0  0  0  0
    3.9639   -2.8096   -1.3569 C   0  0  0  0  0  0  0  0  0  0  0  0
    4.9713   -3.7738   -1.4565 C   0  0  0  0  0  0  0  0  0  0  0  0
    5.6225   -4.2286   -0.3075 C   0  0  0  0  0  0  0  0  0  0  0  0
    6.5988   -5.1642   -0.4066 F   0  0  0  0  0  0  0  0  0  0  0  0
    5.2657   -3.7208    0.9440 C   0  0  0  0  0  0  0  0  0  0  0  0
    4.2587   -2.7565    1.0493 C   0  0  0  0  0  0  0  0  0  0  0  0
    2.8251    0.0190   -0.7908 C   0  0  0  0  0  0  0  0  0  0  0  0
    1.7963    1.1376   -0.5301 C   0  0  0  0  0  0  0  0  0  0  0  0
   -2.1856    1.2387   -0.1642 C   0  0  2  0  0  0  0  0  0  0  0  0
   -3.1604    2.3181   -0.3488 N   0  0  0  0  0  0  0  0  0  0  0  0
   -2.3606    0.6421    1.2205 C   0  0  0  0  0  0  0  0  0  0  0  0
   -1.8707    1.2419    2.2150 O   0  0  0  0  0  0  0  0  0  0  0  0
   -3.1379   -0.5523    1.4406 N   0  0  0  0  0  0  0  0  0  0  0  0
   -3.3139   -1.1314    2.7624 C   0  0  0  0  0  0  0  0  0  0  0  0
   -4.4247   -2.1627    2.6197 C   0  0  0  0  0  0  0  0  0  0  0  0
   -4.5391   -2.4447    1.1232 C   0  0  0  0  0  0  0  0  0  0  0  0
   -3.8273   -3.5912    0.8079 F   0  0  0  0  0  0  0  0  0  0  0  0
   -5.8626   -2.6093    0.7500 F   0  0  0  0  0  0  0  0  0  0  0  0
   -3.9202   -1.2386    0.4235 C   0  0  0  0  0  0  0  0  0  0  0  0
   -1.2822    5.5732    0.8159 H   0  0  0  0  0  0  0  0  0  0  0  0
   -0.4851    6.4194   -0.5529 H   0  0  0  0  0  0  0  0  0  0  0  0
    0.5248    5.6348    0.7140 H   0  0  0  0  0  0  0  0  0  0  0  0
   -1.3227    3.8611   -2.4851 H   0  0  0  0  0  0  0  0  0  0  0  0
   -0.2864    5.3227   -2.4792 H   0  0  0  0  0  0  0  0  0  0  0  0
    0.4861    3.7082   -2.4466 H   0  0  0  0  0  0  0  0  0  0  0  0
   -0.6844    1.7949   -1.6008 H   0  0  0  0  0  0  0  0  0  0  0  0
    0.3629    0.4585    0.9535 H   0  0  0  0  0  0  0  0  0  0  0  0
    0.1647   -0.6247   -1.9223 H   0  0  0  0  0  0  0  0  0  0  0  0
   -0.8993   -1.1231   -0.5702 H   0  0  0  0  0  0  0  0  0  0  0  0
    0.7097   -2.3671    0.5093 H   0  0  0  0  0  0  0  0  0  0  0  0
    1.2196   -2.5622   -1.1909 H   0  0  0  0  0  0  0  0  0  0  0  0
    2.4378   -0.9236    1.0910 H   0  0  0  0  0  0  0  0  0  0  0  0
    3.4678   -2.4766   -2.2594 H   0  0  0  0  0  0  0  0  0  0  0  0
    5.2451   -4.1693   -2.4262 H   0  0  0  0  0  0  0  0  0  0  0  0
    5.7686   -4.0746    1.8349 H   0  0  0  0  0  0  0  0  0  0  0  0
    3.9964   -2.3780    2.0293 H   0  0  0  0  0  0  0  0  0  0  0  0
    3.8416    0.3898   -0.5329 H   0  0  0  0  0  0  0  0  0  0  0  0
    2.8212   -0.2251   -1.8758 H   0  0  0  0  0  0  0  0  0  0  0  0
    1.7466    1.7701   -1.4430 H   0  0  0  0  0  0  0  0  0  0  0  0
    2.1742    1.7830    0.2929 H   0  0  0  0  0  0  0  0  0  0  0  0
   -2.4418    0.4670   -0.9158 H   0  0  0  0  0  0  0  0  0  0  0  0
   -3.0597    2.7116   -1.3118 H   0  0  0  0  0  0  0  0  0  0  0  0
   -2.9851    3.0871    0.3378 H   0  0  0  0  0  0  0  0  0  0  0  0
   -3.6067   -0.3500    3.4974 H   0  0  0  0  0  0  0  0  0  0  0  0
   -2.3666   -1.6162    3.0837 H   0  0  0  0  0  0  0  0  0  0  0  0
   -5.3790   -1.7302    2.9941 H   0  0  0  0  0  0  0  0  0  0  0  0
   -4.1966   -3.0855    3.1962 H   0  0  0  0  0  0  0  0  0  0  0  0
   -3.2730   -1.5769   -0.4128 H   0  0  0  0  0  0  0  0  0  0  0  0
   -4.7087   -0.5554    0.0392 H   0  0  0  0  0  0  0  0  0  0  0  0
  1  2  1  0
  2  3  1  0
  2  4  1  0
  4  5  2  0
  4  6  1  0
  6  7  1  0
  7  8  1  0
  8  9  1  0
  9 10  1  0
 10 11  1  0
 11 12  2  0
 12 13  1  0
 13 14  2  0
 14 15  1  0
 14 16  1  0
 16 17  2  0
 10 18  1  0
 18 19  1  0
  6 20  1  0
 20 21  1  0
 20 22  1  0
 22 23  2  0
 22 24  1  0
 24 25  1  0
 25 26  1  0
 26 27  1  0
 27 28  1  0
 27 29  1  0
 27 30  1  0
 19  7  1  0
 30 24  1  0
 17 11  1  0
  1 31  1  0
  1 32  1  0
  1 33  1  0
  3 34  1  0
  3 35  1  0
  3 36  1  0
  6 37  1  6
  7 38  1  1
  8 39  1  0
  8 40  1  0
  9 41  1  0
  9 42  1  0
 10 43  1  1
 12 44  1  0
 13 45  1  0
 16 46  1  0
 17 47  1  0
 18 48  1  0
 18 49  1  0
 19 50  1  0
 19 51  1  0
 20 52  1  6
 21 53  1  0
 21 54  1  0
 25 55  1  0
 25 56  1  0
 26 57  1  0
 26 58  1  0
 30 59  1  0
 30 60  1  0
M  END
$$$$
