
     RDKit          3D

 59 62  0  0  0  0  0  0  0  0999 V2000
    6.9928    4.0300   -2.5935 C   0  0  0  0  0  0  0  0  0  0  0  0
    7.1096    3.3360   -1.3558 O   0  0  0  0  0  0  0  0  0  0  0  0
    6.1549    2.4350   -0.8619 C   0  0  0  0  0  0  0  0  0  0  0  0
    6.4005    1.8166    0.3830 C   0  0  0  0  0  0  0  0  0  0  0  0
    5.4822    0.9042    0.9295 C   0  0  0  0  0  0  0  0  0  0  0  0
    4.3163    0.6202    0.2203 C   0  0  0  0  0  0  0  0  0  0  0  0
    3.3582   -0.2463    0.6361 N   0  0  0  0  0  0  0  0  0  0  0  0
    2.3328   -0.3127   -0.2519 C   0  0  0  0  0  0  0  0  0  0  0  0
    1.1625   -1.2683   -0.1141 C   0  0  0  0  0  0  0  0  0  0  0  0
   -0.0433   -0.6373   -0.6870 N   0  0  0  0  0  0  0  0  0  0  0  0
   -0.6092    0.5947   -0.2048 C   0  0  0  0  0  0  0  0  0  0  0  0
   -0.0484    1.2390    0.7226 O   0  0  0  0  0  0  0  0  0  0  0  0
   -1.8978    1.1074   -0.7782 C   0  0  0  0  0  0  0  0  0  0  0  0
   -3.1146    0.6392    0.0498 C   0  0  2  0  0  0  0  0  0  0  0  0
   -3.2736   -0.8187   -0.0045 N   0  0  0  0  0  0  0  0  0  0  0  0
   -4.3984    1.3212   -0.4581 C   0  0  0  0  0  0  0  0  0  0  0  0
   -5.5864    0.9739    0.4053 C   0  0  0  0  0  0  0  0  0  0  0  0
   -6.4405   -0.0798    0.0371 C   0  0  0  0  0  0  0  0  0  0  0  0
   -7.5265   -0.4252    0.8475 C   0  0  0  0  0  0  0  0  0  0  0  0
   -8.3462   -1.4416    0.4814 F   0  0  0  0  0  0  0  0  0  0  0  0
   -7.7643    0.2736    2.0348 C   0  0  0  0  0  0  0  0  0  0  0  0
   -8.8163   -0.0612    2.8222 F   0  0  0  0  0  0  0  0  0  0  0  0
   -6.9142    1.3162    2.4140 C   0  0  0  0  0  0  0  0  0  0  0  0
   -5.8262    1.6658    1.6074 C   0  0  0  0  0  0  0  0  0  0  0  0
   -5.0073    2.6749    1.9990 F   0  0  0  0  0  0  0  0  0  0  0  0
    0.8836   -1.5896    1.3972 C   0  0  0  0  0  0  0  0  0  0  0  0
    1.6319   -2.8123    1.9373 C   0  0  0  0  0  0  0  0  0  0  0  0
    1.0667   -4.2680    1.0795 S   0  0  0  0  0  0  0  0  0  0  0  0
   -0.1543   -4.8269    1.7541 O   0  0  0  0  0  0  0  0  0  0  0  0
    2.1540   -5.3050    1.0597 O   0  0  0  0  0  0  0  0  0  0  0  0
    0.6667   -3.7633   -0.5813 C   0  0  0  0  0  0  0  0  0  0  0  0
    1.5150   -2.5431   -0.9476 C   0  0  0  0  0  0  0  0  0  0  0  0
    2.6143    0.6730   -1.6069 S   0  0  0  0  0  0  0  0  0  0  0  0
    4.0758    1.2264   -1.0000 C   0  0  0  0  0  0  0  0  0  0  0  0
    4.9677    2.1315   -1.5681 C   0  0  0  0  0  0  0  0  0  0  0  0
    6.9408    3.3059   -3.4338 H   0  0  0  0  0  0  0  0  0  0  0  0
    7.8850    4.6739   -2.7338 H   0  0  0  0  0  0  0  0  0  0  0  0
    6.0874    4.6731   -2.5865 H   0  0  0  0  0  0  0  0  0  0  0  0
    7.3086    2.0451    0.9262 H   0  0  0  0  0  0  0  0  0  0  0  0
    5.6785    0.4318    1.8835 H   0  0  0  0  0  0  0  0  0  0  0  0
   -0.5463   -1.1166   -1.4685 H   0  0  0  0  0  0  0  0  0  0  0  0
   -1.8585    2.2189   -0.7858 H   0  0  0  0  0  0  0  0  0  0  0  0
   -2.0000    0.7763   -1.8345 H   0  0  0  0  0  0  0  0  0  0  0  0
   -2.9568    0.9446    1.1095 H   0  0  0  0  0  0  0  0  0  0  0  0
   -2.4884   -1.2709    0.5165 H   0  0  0  0  0  0  0  0  0  0  0  0
   -3.2284   -1.1416   -0.9987 H   0  0  0  0  0  0  0  0  0  0  0  0
   -4.2623    2.4250   -0.4607 H   0  0  0  0  0  0  0  0  0  0  0  0
   -4.5906    1.0214   -1.5123 H   0  0  0  0  0  0  0  0  0  0  0  0
   -6.2629   -0.6348   -0.8759 H   0  0  0  0  0  0  0  0  0  0  0  0
   -7.0968    1.8527    3.3362 H   0  0  0  0  0  0  0  0  0  0  0  0
    1.1291   -0.7135    2.0360 H   0  0  0  0  0  0  0  0  0  0  0  0
   -0.2041   -1.7739    1.5429 H   0  0  0  0  0  0  0  0  0  0  0  0
    1.4330   -2.9279    3.0237 H   0  0  0  0  0  0  0  0  0  0  0  0
    2.7253   -2.6901    1.7887 H   0  0  0  0  0  0  0  0  0  0  0  0
    0.8835   -4.5985   -1.2804 H   0  0  0  0  0  0  0  0  0  0  0  0
   -0.4137   -3.5143   -0.6484 H   0  0  0  0  0  0  0  0  0  0  0  0
    2.5864   -2.8141   -0.8070 H   0  0  0  0  0  0  0  0  0  0  0  0
    1.3925   -2.3313   -2.0327 H   0  0  0  0  0  0  0  0  0  0  0  0
    4.7409    2.5796   -2.5259 H   0  0  0  0  0  0  0  0  0  0  0  0
  1  2  1  0
  2  3  1  0
  3  4  2  0
  4  5  1  0
  5  6  2  0
  6  7  1  0
  7  8  2  0
  8  9  1  0
  9 10  1  0
 10 11  1  0
 11 12  2  0
 11 13  1  0
 13 14  1  0
 14 15  1  0
 14 16  1  0
 16 17  1  0
 17 18  2  0
 18 19  1  0
 19 20  1  0
 19 21  2  0
 21 22  1  0
 21 23  1  0
 23 24  2  0
 24 25  1  0
  9 26  1  0
 26 27  1  0
 27 28  1  0
 28 29  2  0
 28 30  2  0
 28 31  1  0
 31 32  1  0
  8 33  1  0
 33 34  1  0
 34 35  2  0
 35  3  1  0
 34  6  1  0
 32  9  1  0
 24 17  1  0
  1 36  1  0
  1 37  1  0
  1 38  1  0
  4 39  1  0
  5 40  1  0
 10 41  1  0
 13 42  1  0
 13 43  1  0
 14 44  1  1
 15 45  1  0
 15 46  1  0
 16 47  1  0
 16 48  1  0
 18 49  1  0
 23 50  1  0
 26 51  1  0
 26 52  1  0
 27 53  1  0
 27 54  1  0
 31 55  1  0
 31 56  1  0
 32 57  1  0
 32 58  1  0
 35 59  1  0
M  END
$$$$
