
     RDKit          3D

 51 51  0  0  0  0  0  0  0  0999 V2000
   -0.8363   -1.0713   -2.1672 C   0  0  0  0  0  0  0  0  0  0  0  0
   -0.3464   -1.7009   -0.8522 C   0  0  1  0  0  0  0  0  0  0  0  0
    1.0463   -1.2202   -0.4672 C   0  0  0  0  0  0  0  0  0  0  0  0
    1.4040    0.1418   -0.5258 C   0  0  0  0  0  0  0  0  0  0  0  0
    2.6774    0.5592   -0.1295 C   0  0  0  0  0  0  0  0  0  0  0  0
    3.6128   -0.3722    0.3359 C   0  0  0  0  0  0  0  0  0  0  0  0
    5.2081    0.1601    0.8555 S   0  0  0  0  0  0  0  0  0  0  0  0
    5.1552    0.5837    2.5815 C   0  0  0  0  0  0  0  0  0  0  0  0
    6.2087   -0.9403    0.6381 O   0  0  0  0  0  0  0  0  0  0  0  0
    5.6299    1.3605    0.0553 O   0  0  0  0  0  0  0  0  0  0  0  0
    3.2586   -1.7238    0.4198 C   0  0  0  0  0  0  0  0  0  0  0  0
    1.9857   -2.1442    0.0249 C   0  0  0  0  0  0  0  0  0  0  0  0
   -1.3479   -1.5565    0.3300 C   0  0  2  0  0  0  0  0  0  0  0  0
   -2.6318   -2.1872    0.0187 N   0  0  0  0  0  0  0  0  0  0  0  0
   -1.5270   -0.1182    0.7867 C   0  0  0  0  0  0  0  0  0  0  0  0
   -0.8145    0.2839    1.7470 O   0  0  0  0  0  0  0  0  0  0  0  0
   -2.4067    0.8214    0.1329 N   0  0  0  0  0  0  0  0  0  0  0  0
   -3.6239    0.4814   -0.5894 C   0  0  0  0  0  0  0  0  0  0  0  0
   -4.1731    1.7988   -1.1187 C   0  0  0  0  0  0  0  0  0  0  0  0
   -3.4994    2.8888   -0.2920 C   0  0  2  0  0  0  0  0  0  0  0  0
   -3.1996    3.9920   -1.0737 F   0  0  0  0  0  0  0  0  0  0  0  0
   -2.2336    2.2587    0.2746 C   0  0  0  0  0  0  0  0  0  0  0  0
    0.7405   -0.0035   -1.5524 O   0  0  0  0  0  0  0  0  0  0  0  0
    0.4680    0.0067   -0.3221 C   0  0  0  0  0  0  0  0  0  0  0  0
    1.4936   -0.0657    0.6157 O   0  0  0  0  0  0  0  0  0  0  0  0
   -0.9566    0.0363    0.1280 C   0  0  0  0  0  0  0  0  0  0  0  0
   -1.4719   -1.2458    0.1037 F   0  0  0  0  0  0  0  0  0  0  0  0
   -1.7013    0.8437   -0.7126 F   0  0  0  0  0  0  0  0  0  0  0  0
   -1.0352    0.5339    1.4159 F   0  0  0  0  0  0  0  0  0  0  0  0
   -0.0654   -1.1992   -2.9569 H   0  0  0  0  0  0  0  0  0  0  0  0
   -1.7596   -1.5814   -2.5135 H   0  0  0  0  0  0  0  0  0  0  0  0
   -1.0473    0.0108   -2.0560 H   0  0  0  0  0  0  0  0  0  0  0  0
   -0.2692   -2.7906   -1.0696 H   0  0  0  0  0  0  0  0  0  0  0  0
    0.6992    0.8884   -0.8641 H   0  0  0  0  0  0  0  0  0  0  0  0
    2.9295    1.6109   -0.1776 H   0  0  0  0  0  0  0  0  0  0  0  0
    6.1591    0.9201    2.9130 H   0  0  0  0  0  0  0  0  0  0  0  0
    4.8501   -0.3048    3.1720 H   0  0  0  0  0  0  0  0  0  0  0  0
    4.4212    1.4005    2.7404 H   0  0  0  0  0  0  0  0  0  0  0  0
    3.9643   -2.4524    0.7981 H   0  0  0  0  0  0  0  0  0  0  0  0
    1.7315   -3.1936    0.1088 H   0  0  0  0  0  0  0  0  0  0  0  0
   -0.9072   -2.1176    1.1879 H   0  0  0  0  0  0  0  0  0  0  0  0
   -2.4646   -3.1978   -0.1935 H   0  0  0  0  0  0  0  0  0  0  0  0
   -3.2227   -2.1701    0.8821 H   0  0  0  0  0  0  0  0  0  0  0  0
   -3.4152   -0.2020   -1.4361 H   0  0  0  0  0  0  0  0  0  0  0  0
   -4.3526    0.0146    0.1080 H   0  0  0  0  0  0  0  0  0  0  0  0
   -5.2798    1.8441   -1.0233 H   0  0  0  0  0  0  0  0  0  0  0  0
   -3.8945    1.9124   -2.1899 H   0  0  0  0  0  0  0  0  0  0  0  0
   -4.1720    3.1955    0.5392 H   0  0  0  0  0  0  0  0  0  0  0  0
   -2.1145    2.5370    1.3445 H   0  0  0  0  0  0  0  0  0  0  0  0
   -1.3368    2.5794   -0.2986 H   0  0  0  0  0  0  0  0  0  0  0  0
    2.4629   -0.1057    0.3237 H   0  0  0  0  0  0  0  0  0  0  0  0
  1  2  1  0
  2  3  1  0
  3  4  2  0
  4  5  1  0
  5  6  2  0
  6  7  1  0
  7  8  1  0
  7  9  2  0
  7 10  2  0
  6 11  1  0
 11 12  2  0
  2 13  1  0
 13 14  1  0
 13 15  1  0
 15 16  2  0
 15 17  1  0
 17 18  1  0
 18 19  1  0
 19 20  1  0
 20 21  1  0
 20 22  1  0
 23 24  2  0
 24 25  1  0
 24 26  1  0
 26 27  1  0
 26 28  1  0
 26 29  1  0
 12  3  1  0
 22 17  1  0
  1 30  1  0
  1 31  1  0
  1 32  1  0
  2 33  1  6
  4 34  1  0
  5 35  1  0
  8 36  1  0
  8 37  1  0
  8 38  1  0
 11 39  1  0
 12 40  1  0
 13 41  1  1
 14 42  1  0
 14 43  1  0
 18 44  1  0
 18 45  1  0
 19 46  1  0
 19 47  1  0
 20 48  1  1
 22 49  1  0
 22 50  1  0
 25 51  1  0
M  END
$$$$
