
     RDKit          3D

 24 23  0  0  0  0  0  0  0  0999 V2000
    2.4163   -1.5975    0.6047 C   0  0  0  0  0  0  0  0  0  0  0  0
    1.6464   -0.3018    0.3385 C   0  0  2  0  0  0  0  0  0  0  0  0
    0.2069   -0.5673    0.2858 N   0  0  0  0  0  0  0  0  0  0  0  0
   -0.7715    0.4443    0.5709 C   0  0  0  0  0  0  0  0  0  0  0  0
   -0.4045    1.6039    0.9069 O   0  0  0  0  0  0  0  0  0  0  0  0
   -2.2370    0.1422    0.4033 C   0  0  2  0  0  0  0  0  0  0  0  0
   -2.7103    0.5745   -0.9891 C   0  0  0  0  0  0  0  0  0  0  0  0
   -3.0166    0.7990    1.4558 N   0  0  0  0  0  0  0  0  0  0  0  0
    2.1224    0.3639   -1.0370 B   0  0  0  0  0  0  0  0  0  0  0  0
    2.7281    1.6930   -1.0330 O   0  0  0  0  0  0  0  0  0  0  0  0
    1.9142   -0.3352   -2.3033 O   0  0  0  0  0  0  0  0  0  0  0  0
    2.0826   -2.0390    1.5678 H   0  0  0  0  0  0  0  0  0  0  0  0
    3.5064   -1.3923    0.6759 H   0  0  0  0  0  0  0  0  0  0  0  0
    2.2394   -2.3393   -0.2043 H   0  0  0  0  0  0  0  0  0  0  0  0
    1.8684    0.4001    1.1719 H   0  0  0  0  0  0  0  0  0  0  0  0
   -0.1239   -1.4937   -0.0693 H   0  0  0  0  0  0  0  0  0  0  0  0
   -2.3858   -0.9565    0.4957 H   0  0  0  0  0  0  0  0  0  0  0  0
   -2.5706    1.6680   -1.1300 H   0  0  0  0  0  0  0  0  0  0  0  0
   -2.1343    0.0354   -1.7717 H   0  0  0  0  0  0  0  0  0  0  0  0
   -3.7863    0.3308   -1.1174 H   0  0  0  0  0  0  0  0  0  0  0  0
   -3.0269    1.8327    1.2924 H   0  0  0  0  0  0  0  0  0  0  0  0
   -4.0070    0.4681    1.3914 H   0  0  0  0  0  0  0  0  0  0  0  0
    3.6997    1.5247   -0.9394 H   0  0  0  0  0  0  0  0  0  0  0  0
    2.7439   -0.8582   -2.4409 H   0  0  0  0  0  0  0  0  0  0  0  0
  1  2  1  0
  2  3  1  0
  3  4  1  0
  4  5  2  0
  4  6  1  0
  6  7  1  0
  6  8  1  0
  2  9  1  0
  9 10  1  0
  9 11  1  0
  1 12  1  0
  1 13  1  0
  1 14  1  0
  2 15  1  1
  3 16  1  0
  6 17  1  6
  7 18  1  0
  7 19  1  0
  7 20  1  0
  8 21  1  0
  8 22  1  0
 10 23  1  0
 11 24  1  0
M  END
$$$$
