
     RDKit          3D

 42 43  0  0  0  0  0  0  0  0999 V2000
    5.3952   -0.3179   -0.1124 C   0  0  0  0  0  0  0  0  0  0  0  0
    4.6885    0.8985   -0.7005 C   0  0  0  0  0  0  0  0  0  0  0  0
    3.2328    0.7742   -0.5376 N   0  0  0  0  0  0  0  0  0  0  0  0
    2.3744    0.6268   -1.7180 C   0  0  0  0  0  0  0  0  0  0  0  0
    2.6596    0.9425    0.7776 C   0  0  0  0  0  0  0  0  0  0  0  0
    3.1248    1.8333    1.5393 O   0  0  0  0  0  0  0  0  0  0  0  0
    1.5365    0.0702    1.3034 C   0  0  2  0  0  0  0  0  0  0  0  0
    1.6583   -1.4096    0.9206 C   0  0  0  0  0  0  0  0  0  0  0  0
    0.4366   -1.7933    0.2129 N   0  0  0  0  0  0  0  0  0  0  0  0
   -0.5762   -0.7951    0.5563 C   0  0  2  0  0  0  0  0  0  0  0  0
   -1.5716   -0.6408   -0.5690 C   0  0  0  0  0  0  0  0  0  0  0  0
   -1.1875   -0.8393   -1.7546 O   0  0  0  0  0  0  0  0  0  0  0  0
   -2.9236   -0.2005   -0.3307 N   0  0  0  0  0  0  0  0  0  0  0  0
   -3.8262    0.1480   -1.4169 C   0  0  0  0  0  0  0  0  0  0  0  0
   -5.1362    0.5541   -0.7545 C   0  0  0  0  0  0  0  0  0  0  0  0
   -4.7882    0.8398    0.7032 C   0  0  0  0  0  0  0  0  0  0  0  0
   -3.5049    0.0572    0.9804 C   0  0  1  0  0  0  0  0  0  0  0  0
   -3.8038   -1.2167    1.6556 C   0  0  0  0  0  0  0  0  0  0  0  0
   -4.0375   -2.2184    2.1859 N   0  0  0  0  0  0  0  0  0  0  0  0
    0.1606    0.5102    0.8270 C   0  0  0  0  0  0  0  0  0  0  0  0
    5.1863   -0.3979    0.9754 H   0  0  0  0  0  0  0  0  0  0  0  0
    6.4915   -0.2201   -0.2584 H   0  0  0  0  0  0  0  0  0  0  0  0
    5.0463   -1.2419   -0.6204 H   0  0  0  0  0  0  0  0  0  0  0  0
    5.0510    1.8211   -0.1980 H   0  0  0  0  0  0  0  0  0  0  0  0
    4.9679    0.9844   -1.7727 H   0  0  0  0  0  0  0  0  0  0  0  0
    2.9724    0.5075   -2.6455 H   0  0  0  0  0  0  0  0  0  0  0  0
    1.7403    1.5298   -1.8347 H   0  0  0  0  0  0  0  0  0  0  0  0
    1.7322   -0.2698   -1.6247 H   0  0  0  0  0  0  0  0  0  0  0  0
    1.5461    0.1299    2.4163 H   0  0  0  0  0  0  0  0  0  0  0  0
    2.5359   -1.6153    0.2728 H   0  0  0  0  0  0  0  0  0  0  0  0
    1.7767   -2.0252    1.8419 H   0  0  0  0  0  0  0  0  0  0  0  0
    0.1217   -2.7349    0.5471 H   0  0  0  0  0  0  0  0  0  0  0  0
   -1.0920   -1.1152    1.4889 H   0  0  0  0  0  0  0  0  0  0  0  0
   -3.4042    0.9998   -1.9935 H   0  0  0  0  0  0  0  0  0  0  0  0
   -3.9801   -0.7245   -2.0883 H   0  0  0  0  0  0  0  0  0  0  0  0
   -5.8569   -0.2918   -0.8031 H   0  0  0  0  0  0  0  0  0  0  0  0
   -5.5827    1.4449   -1.2473 H   0  0  0  0  0  0  0  0  0  0  0  0
   -5.6267    0.5670    1.3826 H   0  0  0  0  0  0  0  0  0  0  0  0
   -4.5835    1.9272    0.8185 H   0  0  0  0  0  0  0  0  0  0  0  0
   -2.8181    0.6655    1.6065 H   0  0  0  0  0  0  0  0  0  0  0  0
   -0.3601    1.1057    1.6086 H   0  0  0  0  0  0  0  0  0  0  0  0
    0.2243    1.1304   -0.0918 H   0  0  0  0  0  0  0  0  0  0  0  0
  1  2  1  0
  2  3  1  0
  3  4  1  0
  3  5  1  0
  5  6  2  0
  5  7  1  0
  7  8  1  0
  8  9  1  0
  9 10  1  0
 10 11  1  0
 11 12  2  0
 11 13  1  0
 13 14  1  0
 14 15  1  0
 15 16  1  0
 16 17  1  0
 17 18  1  0
 18 19  3  0
 10 20  1  0
 20  7  1  0
 17 13  1  0
  1 21  1  0
  1 22  1  0
  1 23  1  0
  2 24  1  0
  2 25  1  0
  4 26  1  0
  4 27  1  0
  4 28  1  0
  7 29  1  1
  8 30  1  0
  8 31  1  0
  9 32  1  0
 10 33  1  1
 14 34  1  0
 14 35  1  0
 15 36  1  0
 15 37  1  0
 16 38  1  0
 16 39  1  0
 17 40  1  1
 20 41  1  0
 20 42  1  0
M  END
$$$$
