
     RDKit          3D

 48 50  0  0  0  0  0  0  0  0999 V2000
   -1.6504    4.5599    2.0440 C   0  0  0  0  0  0  0  0  0  0  0  0
   -1.1724    3.6320    1.0196 C   0  0  0  0  0  0  0  0  0  0  0  0
   -0.7807    2.8639    0.1775 C   0  0  0  0  0  0  0  0  0  0  0  0
   -0.3079    1.9223   -0.8426 C   0  0  0  0  0  0  0  0  0  0  0  0
    0.3751    0.7810   -0.2023 N   0  0  0  0  0  0  0  0  0  0  0  0
   -0.3234   -0.3540    0.1253 C   0  0  0  0  0  0  0  0  0  0  0  0
   -1.7252   -0.4773   -0.1570 N   0  0  0  0  0  0  0  0  0  0  0  0
   -2.1633   -1.0749   -1.4231 C   0  0  0  0  0  0  0  0  0  0  0  0
   -3.1860   -2.1811   -1.1467 C   0  0  0  0  0  0  0  0  0  0  0  0
   -4.3480   -1.7216   -0.2342 C   0  0  0  0  0  0  0  0  0  0  0  0
   -4.1407   -0.3239    0.3865 C   0  0  1  0  0  0  0  0  0  0  0  0
   -5.1105   -0.0999    1.4606 N   0  0  0  0  0  0  0  0  0  0  0  0
   -2.6961   -0.1519    0.8947 C   0  0  0  0  0  0  0  0  0  0  0  0
    0.3261   -1.4210    0.7368 C   0  0  0  0  0  0  0  0  0  0  0  0
    1.6785   -1.3153    1.0298 C   0  0  0  0  0  0  0  0  0  0  0  0
    2.2632   -2.2952    1.5683 O   0  0  0  0  0  0  0  0  0  0  0  0
    2.3601   -0.1637    0.7375 N   0  0  0  0  0  0  0  0  0  0  0  0
    3.8022   -0.0636    1.0382 C   0  0  0  0  0  0  0  0  0  0  0  0
    4.6052   -0.5417   -0.1311 C   0  0  0  0  0  0  0  0  0  0  0  0
    4.9737    0.3314   -1.1073 N   0  0  0  0  0  0  0  0  0  0  0  0
    5.6695   -0.0901   -2.1951 C   0  0  0  0  0  0  0  0  0  0  0  0
    6.0071   -1.4366   -2.3256 C   0  0  0  0  0  0  0  0  0  0  0  0
    5.6117   -2.3205   -1.3224 C   0  0  0  0  0  0  0  0  0  0  0  0
    4.9169   -1.8607   -0.2496 N   0  0  0  0  0  0  0  0  0  0  0  0
    1.7100    0.8759    0.1157 C   0  0  0  0  0  0  0  0  0  0  0  0
    2.3463    1.9315   -0.1659 O   0  0  0  0  0  0  0  0  0  0  0  0
   -0.8321    4.7705    2.7629 H   0  0  0  0  0  0  0  0  0  0  0  0
   -2.5077    4.1058    2.5822 H   0  0  0  0  0  0  0  0  0  0  0  0
   -1.9742    5.5062    1.5640 H   0  0  0  0  0  0  0  0  0  0  0  0
   -1.1691    1.5924   -1.4575 H   0  0  0  0  0  0  0  0  0  0  0  0
    0.3743    2.4540   -1.5399 H   0  0  0  0  0  0  0  0  0  0  0  0
   -1.2989   -1.5031   -1.9773 H   0  0  0  0  0  0  0  0  0  0  0  0
   -2.6245   -0.2923   -2.0629 H   0  0  0  0  0  0  0  0  0  0  0  0
   -3.5908   -2.5537   -2.1126 H   0  0  0  0  0  0  0  0  0  0  0  0
   -2.6566   -3.0300   -0.6603 H   0  0  0  0  0  0  0  0  0  0  0  0
   -5.2929   -1.7108   -0.8203 H   0  0  0  0  0  0  0  0  0  0  0  0
   -4.4775   -2.4722    0.5768 H   0  0  0  0  0  0  0  0  0  0  0  0
   -4.3218    0.4363   -0.4068 H   0  0  0  0  0  0  0  0  0  0  0  0
   -4.8896   -0.7302    2.2661 H   0  0  0  0  0  0  0  0  0  0  0  0
   -5.0096    0.8843    1.8006 H   0  0  0  0  0  0  0  0  0  0  0  0
   -2.5489    0.8983    1.2234 H   0  0  0  0  0  0  0  0  0  0  0  0
   -2.5214   -0.8183    1.7676 H   0  0  0  0  0  0  0  0  0  0  0  0
   -0.2196   -2.3255    0.9796 H   0  0  0  0  0  0  0  0  0  0  0  0
    4.0854    0.9827    1.2864 H   0  0  0  0  0  0  0  0  0  0  0  0
    4.0641   -0.6584    1.9405 H   0  0  0  0  0  0  0  0  0  0  0  0
    5.9570    0.6195   -2.9593 H   0  0  0  0  0  0  0  0  0  0  0  0
    6.5599   -1.7880   -3.1872 H   0  0  0  0  0  0  0  0  0  0  0  0
    5.8537   -3.3722   -1.3975 H   0  0  0  0  0  0  0  0  0  0  0  0
  1  2  1  0
  2  3  3  0
  3  4  1  0
  4  5  1  0
  5  6  1  0
  6  7  1  0
  7  8  1  0
  8  9  1  0
  9 10  1  0
 10 11  1  0
 11 12  1  0
 11 13  1  0
  6 14  2  0
 14 15  1  0
 15 16  2  0
 15 17  1  0
 17 18  1  0
 18 19  1  0
 19 20  2  0
 20 21  1  0
 21 22  2  0
 22 23  1  0
 23 24  2  0
 17 25  1  0
 25 26  2  0
 25  5  1  0
 13  7  1  0
 24 19  1  0
  1 27  1  0
  1 28  1  0
  1 29  1  0
  4 30  1  0
  4 31  1  0
  8 32  1  0
  8 33  1  0
  9 34  1  0
  9 35  1  0
 10 36  1  0
 10 37  1  0
 11 38  1  6
 12 39  1  0
 12 40  1  0
 13 41  1  0
 13 42  1  0
 14 43  1  0
 18 44  1  0
 18 45  1  0
 21 46  1  0
 22 47  1  0
 23 48  1  0
M  END
$$$$
