
     RDKit          3D

 49 52  0  0  0  0  0  0  0  0999 V2000
    4.5095    5.1625   -0.1298 N   0  0  0  0  0  0  0  0  0  0  0  0
    4.3471    4.0231   -0.0091 C   0  0  0  0  0  0  0  0  0  0  0  0
    4.1396    2.5739    0.1446 C   0  0  2  0  0  0  0  0  0  0  0  0
    4.7626    1.7999   -1.0172 C   0  0  0  0  0  0  0  0  0  0  0  0
    3.6085    1.4692   -1.9596 C   0  0  0  0  0  0  0  0  0  0  0  0
    2.3474    1.5350   -1.1084 C   0  0  0  0  0  0  0  0  0  0  0  0
    2.7175    2.2687    0.0912 N   0  0  0  0  0  0  0  0  0  0  0  0
    1.8059    2.5626    1.1671 C   0  0  0  0  0  0  0  0  0  0  0  0
    2.2265    3.1522    2.1993 O   0  0  0  0  0  0  0  0  0  0  0  0
    0.3646    2.1392    1.1119 C   0  0  0  0  0  0  0  0  0  0  0  0
    0.2313    0.7183    1.4284 N   0  0  0  0  0  0  0  0  0  0  0  0
   -1.0564    0.1010    1.5598 C   0  0  0  0  0  0  0  0  0  0  0  0
   -2.1035    0.7876    1.4087 O   0  0  0  0  0  0  0  0  0  0  0  0
   -1.1682   -1.3228    1.9432 C   0  0  0  0  0  0  0  0  0  0  0  0
   -0.4657   -1.7244    3.0897 C   0  0  0  0  0  0  0  0  0  0  0  0
   -0.7003   -2.9740    3.6522 C   0  0  0  0  0  0  0  0  0  0  0  0
   -1.6270   -3.7993    3.1104 N   0  0  0  0  0  0  0  0  0  0  0  0
   -2.3145   -3.4726    1.9853 C   0  0  0  0  0  0  0  0  0  0  0  0
   -3.2697   -4.3677    1.4972 C   0  0  0  0  0  0  0  0  0  0  0  0
   -3.9739   -4.0782    0.3337 C   0  0  0  0  0  0  0  0  0  0  0  0
   -3.6899   -2.9199   -0.3846 C   0  0  0  0  0  0  0  0  0  0  0  0
   -2.7164   -2.0107    0.0649 C   0  0  0  0  0  0  0  0  0  0  0  0
   -2.3063   -0.9542   -0.8878 C   0  0  0  0  0  0  0  0  0  0  0  0
   -3.2380   -0.0047   -1.3407 C   0  0  0  0  0  0  0  0  0  0  0  0
   -2.8563    0.9668   -2.2711 C   0  0  0  0  0  0  0  0  0  0  0  0
   -1.5525    0.9809   -2.7744 C   0  0  0  0  0  0  0  0  0  0  0  0
   -0.6291    0.0219   -2.3502 C   0  0  0  0  0  0  0  0  0  0  0  0
   -1.0007   -0.9409   -1.4074 C   0  0  0  0  0  0  0  0  0  0  0  0
   -2.0640   -2.2412    1.3162 C   0  0  0  0  0  0  0  0  0  0  0  0
    4.5752    2.2344    1.1097 H   0  0  0  0  0  0  0  0  0  0  0  0
    5.1965    0.8510   -0.6313 H   0  0  0  0  0  0  0  0  0  0  0  0
    5.5658    2.3645   -1.5417 H   0  0  0  0  0  0  0  0  0  0  0  0
    3.7356    0.4655   -2.4203 H   0  0  0  0  0  0  0  0  0  0  0  0
    3.5569    2.2365   -2.7633 H   0  0  0  0  0  0  0  0  0  0  0  0
    1.5408    2.0678   -1.6561 H   0  0  0  0  0  0  0  0  0  0  0  0
    2.0152    0.5109   -0.8334 H   0  0  0  0  0  0  0  0  0  0  0  0
   -0.0570    2.3393    0.1046 H   0  0  0  0  0  0  0  0  0  0  0  0
   -0.2187    2.7352    1.8473 H   0  0  0  0  0  0  0  0  0  0  0  0
    1.0867    0.1281    1.5457 H   0  0  0  0  0  0  0  0  0  0  0  0
    0.2213   -1.0489    3.5855 H   0  0  0  0  0  0  0  0  0  0  0  0
   -0.1738   -3.2728    4.5488 H   0  0  0  0  0  0  0  0  0  0  0  0
   -3.4695   -5.2931    2.0238 H   0  0  0  0  0  0  0  0  0  0  0  0
   -4.7139   -4.7757   -0.0370 H   0  0  0  0  0  0  0  0  0  0  0  0
   -4.1980   -2.7566   -1.3278 H   0  0  0  0  0  0  0  0  0  0  0  0
   -4.2534   -0.0110   -0.9638 H   0  0  0  0  0  0  0  0  0  0  0  0
   -3.5733    1.7045   -2.6074 H   0  0  0  0  0  0  0  0  0  0  0  0
   -1.2604    1.7288   -3.5000 H   0  0  0  0  0  0  0  0  0  0  0  0
    0.3730    0.0203   -2.7578 H   0  0  0  0  0  0  0  0  0  0  0  0
   -0.2767   -1.6809   -1.0892 H   0  0  0  0  0  0  0  0  0  0  0  0
  1  2  3  0
  2  3  1  0
  3  4  1  0
  4  5  1  0
  5  6  1  0
  6  7  1  0
  7  8  1  0
  8  9  2  0
  8 10  1  0
 10 11  1  0
 11 12  1  0
 12 13  2  0
 12 14  1  0
 14 15  2  0
 15 16  1  0
 16 17  2  0
 17 18  1  0
 18 19  2  0
 19 20  1  0
 20 21  2  0
 21 22  1  0
 22 23  1  0
 23 24  2  0
 24 25  1  0
 25 26  2  0
 26 27  1  0
 27 28  2  0
 22 29  2  0
  7  3  1  0
 29 14  1  0
 29 18  1  0
 28 23  1  0
  3 30  1  1
  4 31  1  0
  4 32  1  0
  5 33  1  0
  5 34  1  0
  6 35  1  0
  6 36  1  0
 10 37  1  0
 10 38  1  0
 11 39  1  0
 15 40  1  0
 16 41  1  0
 19 42  1  0
 20 43  1  0
 21 44  1  0
 24 45  1  0
 25 46  1  0
 26 47  1  0
 27 48  1  0
 28 49  1  0
M  END
$$$$
