
     RDKit          3D

 49 52  0  0  0  0  0  0  0  0999 V2000
   -4.7674   -0.9743    3.7111 N   0  0  0  0  0  0  0  0  0  0  0  0
   -5.1616   -0.6570    2.6704 C   0  0  0  0  0  0  0  0  0  0  0  0
   -5.6619   -0.2529    1.3459 C   0  0  2  0  0  0  0  0  0  0  0  0
   -6.6108   -1.3045    0.7710 C   0  0  0  0  0  0  0  0  0  0  0  0
   -5.7767   -2.1155   -0.2168 C   0  0  0  0  0  0  0  0  0  0  0  0
   -4.6182   -1.2115   -0.6174 C   0  0  0  0  0  0  0  0  0  0  0  0
   -4.5569   -0.1746    0.4013 N   0  0  0  0  0  0  0  0  0  0  0  0
   -3.5595    0.8647    0.4372 C   0  0  0  0  0  0  0  0  0  0  0  0
   -3.6126    1.7455    1.3392 O   0  0  0  0  0  0  0  0  0  0  0  0
   -2.4085    0.8781   -0.5398 C   0  0  2  0  0  0  0  0  0  0  0  0
   -1.2345   -0.0048   -0.0537 C   0  0  0  0  0  0  0  0  0  0  0  0
    0.0624    0.8022   -0.2903 C   0  0  0  0  0  0  0  0  0  0  0  0
    0.8561    0.2554   -1.4936 C   0  0  0  0  0  0  0  0  0  0  0  0
    2.1753    0.9608   -1.6592 C   0  0  0  0  0  0  0  0  0  0  0  0
    2.2530    1.9248   -2.4682 O   0  0  0  0  0  0  0  0  0  0  0  0
    3.3319    0.5832   -0.8924 N   0  0  0  0  0  0  0  0  0  0  0  0
    3.4096   -0.5890   -0.0157 C   0  0  0  0  0  0  0  0  0  0  0  0
    4.7970   -0.5276    0.5027 C   0  0  0  0  0  0  0  0  0  0  0  0
    5.4189   -1.4038    1.3937 C   0  0  0  0  0  0  0  0  0  0  0  0
    6.7535   -1.1572    1.7548 C   0  0  0  0  0  0  0  0  0  0  0  0
    7.4389   -0.0477    1.2234 C   0  0  0  0  0  0  0  0  0  0  0  0
    6.7932    0.8206    0.3282 C   0  0  0  0  0  0  0  0  0  0  0  0
    5.4666    0.5562   -0.0165 C   0  0  0  0  0  0  0  0  0  0  0  0
    4.5929    1.3267   -0.9333 C   0  0  0  0  0  0  0  0  0  0  0  0
   -0.4574    2.1695   -0.5487 C   0  0  0  0  0  0  0  0  0  0  0  0
    0.2639    3.1990   -0.6257 O   0  0  0  0  0  0  0  0  0  0  0  0
   -1.8601    2.2145   -0.6826 N   0  0  0  0  0  0  0  0  0  0  0  0
   -6.1772    0.7291    1.4247 H   0  0  0  0  0  0  0  0  0  0  0  0
   -7.0679   -1.9572    1.5481 H   0  0  0  0  0  0  0  0  0  0  0  0
   -7.4291   -0.7928    0.2176 H   0  0  0  0  0  0  0  0  0  0  0  0
   -5.3830   -3.0233    0.2913 H   0  0  0  0  0  0  0  0  0  0  0  0
   -6.3781   -2.4221   -1.1000 H   0  0  0  0  0  0  0  0  0  0  0  0
   -4.8166   -0.7505   -1.6091 H   0  0  0  0  0  0  0  0  0  0  0  0
   -3.6685   -1.7876   -0.6461 H   0  0  0  0  0  0  0  0  0  0  0  0
   -2.7461    0.5360   -1.5412 H   0  0  0  0  0  0  0  0  0  0  0  0
   -1.3261   -0.2175    1.0355 H   0  0  0  0  0  0  0  0  0  0  0  0
   -1.2346   -0.9807   -0.5869 H   0  0  0  0  0  0  0  0  0  0  0  0
    0.6875    0.8003    0.6290 H   0  0  0  0  0  0  0  0  0  0  0  0
    1.0406   -0.8308   -1.3565 H   0  0  0  0  0  0  0  0  0  0  0  0
    0.2562    0.3635   -2.4249 H   0  0  0  0  0  0  0  0  0  0  0  0
    2.6824   -0.5068    0.8185 H   0  0  0  0  0  0  0  0  0  0  0  0
    3.2568   -1.5223   -0.5981 H   0  0  0  0  0  0  0  0  0  0  0  0
    4.8854   -2.2544    1.7977 H   0  0  0  0  0  0  0  0  0  0  0  0
    7.2569   -1.8225    2.4441 H   0  0  0  0  0  0  0  0  0  0  0  0
    8.4673    0.1367    1.5057 H   0  0  0  0  0  0  0  0  0  0  0  0
    7.3133    1.6753   -0.0846 H   0  0  0  0  0  0  0  0  0  0  0  0
    5.0111    1.3270   -1.9625 H   0  0  0  0  0  0  0  0  0  0  0  0
    4.4455    2.3611   -0.5561 H   0  0  0  0  0  0  0  0  0  0  0  0
   -2.4031    3.0588   -0.9715 H   0  0  0  0  0  0  0  0  0  0  0  0
  1  2  3  0
  2  3  1  0
  3  4  1  0
  4  5  1  0
  5  6  1  0
  6  7  1  0
  7  8  1  0
  8  9  2  0
  8 10  1  0
 10 11  1  0
 11 12  1  0
 12 13  1  0
 13 14  1  0
 14 15  2  0
 14 16  1  0
 16 17  1  0
 17 18  1  0
 18 19  2  0
 19 20  1  0
 20 21  2  0
 21 22  1  0
 22 23  2  0
 23 24  1  0
 12 25  1  0
 25 26  2  0
 25 27  1  0
  7  3  1  0
 27 10  1  0
 24 16  1  0
 23 18  1  0
  3 28  1  1
  4 29  1  0
  4 30  1  0
  5 31  1  0
  5 32  1  0
  6 33  1  0
  6 34  1  0
 10 35  1  6
 11 36  1  0
 11 37  1  0
 12 38  1  0
 13 39  1  0
 13 40  1  0
 17 41  1  0
 17 42  1  0
 19 43  1  0
 20 44  1  0
 21 45  1  0
 22 46  1  0
 24 47  1  0
 24 48  1  0
 27 49  1  0
M  END
$$$$
