
     RDKit          3D

 55 57  0  0  0  0  0  0  0  0999 V2000
    0.6431    0.5988   -0.9359 C   0  0  0  0  0  0  0  0  0  0  0  0
    1.0972   -0.8246   -1.3399 C   0  0  0  0  0  0  0  0  0  0  0  0
    0.8944   -1.0271   -2.8622 C   0  0  0  0  0  0  0  0  0  0  0  0
    0.2525   -1.8753   -0.5531 C   0  0  0  0  0  0  0  0  0  0  0  0
   -1.2370   -1.7743   -0.7543 C   0  0  0  0  0  0  0  0  0  0  0  0
   -1.7802   -2.3943   -1.7088 O   0  0  0  0  0  0  0  0  0  0  0  0
   -2.0338   -0.9812    0.1345 N   0  0  0  0  0  0  0  0  0  0  0  0
   -3.4585   -0.7721   -0.1009 C   0  0  1  0  0  0  0  0  0  0  0  0
   -4.3118   -1.9573    0.3195 C   0  0  0  0  0  0  0  0  0  0  0  0
   -4.2878   -0.6931    1.1753 C   0  0  2  0  0  0  0  0  0  0  0  0
   -5.5174    0.1662    1.0726 C   0  0  0  0  0  0  0  0  0  0  0  0
   -5.4062    1.5207    0.7186 C   0  0  0  0  0  0  0  0  0  0  0  0
   -6.5453    2.3301    0.6650 C   0  0  0  0  0  0  0  0  0  0  0  0
   -7.7988    1.7976    0.9810 C   0  0  0  0  0  0  0  0  0  0  0  0
   -8.9019    2.5841    0.9304 F   0  0  0  0  0  0  0  0  0  0  0  0
   -7.9131    0.4561    1.3580 C   0  0  0  0  0  0  0  0  0  0  0  0
   -6.7759   -0.3560    1.4126 C   0  0  0  0  0  0  0  0  0  0  0  0
    2.5187   -1.0292   -0.9506 N   0  0  0  0  0  0  0  0  0  0  0  0
    3.5186   -0.2925   -1.7414 C   0  0  0  0  0  0  0  0  0  0  0  0
    4.8407   -0.3278   -1.0312 C   0  0  0  0  0  0  0  0  0  0  0  0
    5.7504   -1.0807   -1.4737 O   0  0  0  0  0  0  0  0  0  0  0  0
    5.0742    0.4535    0.1565 N   0  0  0  0  0  0  0  0  0  0  0  0
    4.1052    1.3778    0.7252 C   0  0  0  0  0  0  0  0  0  0  0  0
    4.7606    1.9443    1.9781 C   0  0  0  0  0  0  0  0  0  0  0  0
    6.2506    1.6436    1.8387 C   0  0  0  0  0  0  0  0  0  0  0  0
    6.3461    0.4699    0.8640 C   0  0  1  0  0  0  0  0  0  0  0  0
    6.5372   -0.8019    1.5807 C   0  0  0  0  0  0  0  0  0  0  0  0
    6.6867   -1.8019    2.1435 N   0  0  0  0  0  0  0  0  0  0  0  0
   -0.4295    0.7577   -1.1725 H   0  0  0  0  0  0  0  0  0  0  0  0
    1.1955    1.3854   -1.4858 H   0  0  0  0  0  0  0  0  0  0  0  0
    0.7927    0.7579    0.1531 H   0  0  0  0  0  0  0  0  0  0  0  0
    1.2568   -2.0307   -3.1713 H   0  0  0  0  0  0  0  0  0  0  0  0
    1.4373   -0.2554   -3.4470 H   0  0  0  0  0  0  0  0  0  0  0  0
   -0.1761   -0.9349   -3.1392 H   0  0  0  0  0  0  0  0  0  0  0  0
    0.5711   -2.9009   -0.8436 H   0  0  0  0  0  0  0  0  0  0  0  0
    0.4706   -1.7796    0.5334 H   0  0  0  0  0  0  0  0  0  0  0  0
   -1.5674   -0.4502    0.9042 H   0  0  0  0  0  0  0  0  0  0  0  0
   -3.7806   -0.2328   -1.0178 H   0  0  0  0  0  0  0  0  0  0  0  0
   -5.2131   -2.1022   -0.3140 H   0  0  0  0  0  0  0  0  0  0  0  0
   -3.7509   -2.8122    0.7542 H   0  0  0  0  0  0  0  0  0  0  0  0
   -3.7449   -0.7764    2.1410 H   0  0  0  0  0  0  0  0  0  0  0  0
   -4.4390    1.9477    0.4835 H   0  0  0  0  0  0  0  0  0  0  0  0
   -6.4545    3.3712    0.3830 H   0  0  0  0  0  0  0  0  0  0  0  0
   -8.8818    0.0458    1.6128 H   0  0  0  0  0  0  0  0  0  0  0  0
   -6.8753   -1.3904    1.7179 H   0  0  0  0  0  0  0  0  0  0  0  0
    2.7565   -2.0470   -1.0336 H   0  0  0  0  0  0  0  0  0  0  0  0
    3.6341   -0.7587   -2.7453 H   0  0  0  0  0  0  0  0  0  0  0  0
    3.2346    0.7660   -1.8907 H   0  0  0  0  0  0  0  0  0  0  0  0
    3.8921    2.1926   -0.0001 H   0  0  0  0  0  0  0  0  0  0  0  0
    3.1672    0.8448    0.9884 H   0  0  0  0  0  0  0  0  0  0  0  0
    4.3617    1.4230    2.8761 H   0  0  0  0  0  0  0  0  0  0  0  0
    4.5747    3.0358    2.0763 H   0  0  0  0  0  0  0  0  0  0  0  0
    6.7165    1.4337    2.8275 H   0  0  0  0  0  0  0  0  0  0  0  0
    6.7572    2.5284    1.3936 H   0  0  0  0  0  0  0  0  0  0  0  0
    7.1858    0.6278    0.1525 H   0  0  0  0  0  0  0  0  0  0  0  0
  1  2  1  0
  2  3  1  0
  2  4  1  0
  4  5  1  0
  5  6  2  0
  5  7  1  0
  7  8  1  0
  8  9  1  0
  9 10  1  0
 10 11  1  0
 11 12  2  0
 12 13  1  0
 13 14  2  0
 14 15  1  0
 14 16  1  0
 16 17  2  0
  2 18  1  0
 18 19  1  0
 19 20  1  0
 20 21  2  0
 20 22  1  0
 22 23  1  0
 23 24  1  0
 24 25  1  0
 25 26  1  0
 26 27  1  0
 27 28  3  0
 10  8  1  0
 17 11  1  0
 26 22  1  0
  1 29  1  0
  1 30  1  0
  1 31  1  0
  3 32  1  0
  3 33  1  0
  3 34  1  0
  4 35  1  0
  4 36  1  0
  7 37  1  0
  8 38  1  6
  9 39  1  0
  9 40  1  0
 10 41  1  1
 12 42  1  0
 13 43  1  0
 16 44  1  0
 17 45  1  0
 18 46  1  0
 19 47  1  0
 19 48  1  0
 23 49  1  0
 23 50  1  0
 24 51  1  0
 24 52  1  0
 25 53  1  0
 25 54  1  0
 26 55  1  6
M  END
$$$$
