
     RDKit          3D

 33 34  0  0  0  0  0  0  0  0999 V2000
    4.0098    0.3226   -0.6691 C   0  0  0  0  0  0  0  0  0  0  0  0
    3.8413    0.7153    0.7640 C   0  0  0  0  0  0  0  0  0  0  0  0
    4.7723    1.4050    1.4509 N   0  0  0  0  0  0  0  0  0  0  0  0
    4.2075    1.5789    2.6640 C   0  0  0  0  0  0  0  0  0  0  0  0
    3.0114    1.0408    2.7456 O   0  0  0  0  0  0  0  0  0  0  0  0
    2.7527    0.4840    1.5884 C   0  0  0  0  0  0  0  0  0  0  0  0
    1.4926   -0.2194    1.2914 C   0  0  0  0  0  0  0  0  0  0  0  0
    0.4657    0.0711    1.9616 O   0  0  0  0  0  0  0  0  0  0  0  0
    1.4259   -1.2454    0.2904 N   0  0  0  0  0  0  0  0  0  0  0  0
    0.1552   -1.7609   -0.2128 C   0  0  0  0  0  0  0  0  0  0  0  0
   -0.5208   -0.7219   -1.0662 C   0  0  0  0  0  0  0  0  0  0  0  0
    0.0878   -0.3033   -2.0884 O   0  0  0  0  0  0  0  0  0  0  0  0
   -1.8272   -0.1945   -0.7556 N   0  0  0  0  0  0  0  0  0  0  0  0
   -2.4199    0.8930   -1.5185 C   0  0  0  0  0  0  0  0  0  0  0  0
   -3.8152    1.0940   -0.9428 C   0  0  0  0  0  0  0  0  0  0  0  0
   -3.8028    0.4052    0.4180 C   0  0  0  0  0  0  0  0  0  0  0  0
   -2.6737   -0.6234    0.3507 C   0  0  1  0  0  0  0  0  0  0  0  0
   -3.2041   -1.9711    0.0849 C   0  0  0  0  0  0  0  0  0  0  0  0
   -3.6199   -3.0306   -0.1245 N   0  0  0  0  0  0  0  0  0  0  0  0
    4.3698   -0.7250   -0.7307 H   0  0  0  0  0  0  0  0  0  0  0  0
    4.7580    0.9834   -1.1551 H   0  0  0  0  0  0  0  0  0  0  0  0
    3.0481    0.4268   -1.2136 H   0  0  0  0  0  0  0  0  0  0  0  0
    4.6874    2.1056    3.4778 H   0  0  0  0  0  0  0  0  0  0  0  0
    2.3057   -1.6886   -0.0531 H   0  0  0  0  0  0  0  0  0  0  0  0
   -0.4707   -2.0940    0.6378 H   0  0  0  0  0  0  0  0  0  0  0  0
    0.3472   -2.6560   -0.8426 H   0  0  0  0  0  0  0  0  0  0  0  0
   -1.8102    1.8136   -1.3893 H   0  0  0  0  0  0  0  0  0  0  0  0
   -2.4778    0.6256   -2.5961 H   0  0  0  0  0  0  0  0  0  0  0  0
   -4.0651    2.1732   -0.8492 H   0  0  0  0  0  0  0  0  0  0  0  0
   -4.5647    0.5999   -1.5996 H   0  0  0  0  0  0  0  0  0  0  0  0
   -4.7938   -0.0428    0.6552 H   0  0  0  0  0  0  0  0  0  0  0  0
   -3.5634    1.1586    1.2010 H   0  0  0  0  0  0  0  0  0  0  0  0
   -2.1091   -0.6196    1.3070 H   0  0  0  0  0  0  0  0  0  0  0  0
  1  2  1  0
  2  3  1  0
  3  4  2  0
  4  5  1  0
  5  6  1  0
  6  7  1  0
  7  8  2  0
  7  9  1  0
  9 10  1  0
 10 11  1  0
 11 12  2  0
 11 13  1  0
 13 14  1  0
 14 15  1  0
 15 16  1  0
 16 17  1  0
 17 18  1  0
 18 19  3  0
  6  2  2  0
 17 13  1  0
  1 20  1  0
  1 21  1  0
  1 22  1  0
  4 23  1  0
  9 24  1  0
 10 25  1  0
 10 26  1  0
 14 27  1  0
 14 28  1  0
 15 29  1  0
 15 30  1  0
 16 31  1  0
 16 32  1  0
 17 33  1  1
M  END
$$$$
