
     RDKit          3D

 69 73  0  0  0  0  0  0  0  0999 V2000
   -0.8297   -3.9324   -1.7254 C   0  0  0  0  0  0  0  0  0  0  0  0
   -1.3896   -3.3571   -0.4507 C   0  0  0  0  0  0  0  0  0  0  0  0
   -2.1045   -4.2571    0.5286 C   0  0  0  0  0  0  0  0  0  0  0  0
   -1.2373   -2.0380   -0.2141 C   0  0  0  0  0  0  0  0  0  0  0  0
   -1.7552   -1.3560    1.0266 C   0  0  0  0  0  0  0  0  0  0  0  0
   -1.4613    0.0801    0.9791 N   0  0  0  0  0  0  0  0  0  0  0  0
   -2.3261    1.0671    0.6362 C   0  0  0  0  0  0  0  0  0  0  0  0
   -3.6840    0.8397    0.2288 N   0  0  0  0  0  0  0  0  0  0  0  0
   -3.9377    0.1182   -1.0301 C   0  0  0  0  0  0  0  0  0  0  0  0
   -4.8745    0.8798   -1.9959 C   0  0  0  0  0  0  0  0  0  0  0  0
   -5.5568    2.1274   -1.4067 C   0  0  0  0  0  0  0  0  0  0  0  0
   -6.5807    1.8200   -0.3933 N   0  0  0  0  0  0  0  0  0  0  0  0
   -6.1625    0.8780    0.6589 C   0  0  0  0  0  0  0  0  0  0  0  0
   -4.7476    1.1547    1.1968 C   0  0  0  0  0  0  0  0  0  0  0  0
   -1.7133    2.3114    0.6960 C   0  0  0  0  0  0  0  0  0  0  0  0
   -2.3272    3.5696    0.3576 C   0  0  0  0  0  0  0  0  0  0  0  0
   -2.8217    4.5801    0.0862 N   0  0  0  0  0  0  0  0  0  0  0  0
   -0.3998    2.0565    1.0779 C   0  0  0  0  0  0  0  0  0  0  0  0
   -0.2842    0.7018    1.2344 C   0  0  0  0  0  0  0  0  0  0  0  0
    0.9466    0.1472    1.5758 C   0  0  0  0  0  0  0  0  0  0  0  0
    1.0779   -1.1024    1.6886 O   0  0  0  0  0  0  0  0  0  0  0  0
    2.0182    0.9866    1.7683 N   0  0  0  0  0  0  0  0  0  0  0  0
    3.3414    0.4144    2.0974 C   0  0  0  0  0  0  0  0  0  0  0  0
    4.1109    0.0382    0.8501 C   0  0  0  0  0  0  0  0  0  0  0  0
    3.5597    0.2807   -0.3711 N   0  0  0  0  0  0  0  0  0  0  0  0
    4.1869   -0.0304   -1.5319 C   0  0  0  0  0  0  0  0  0  0  0  0
    5.4518   -0.6241   -1.5094 C   0  0  0  0  0  0  0  0  0  0  0  0
    6.1059   -0.9493   -2.7078 C   0  0  0  0  0  0  0  0  0  0  0  0
    7.3693   -1.5418   -2.6787 C   0  0  0  0  0  0  0  0  0  0  0  0
    7.9877   -1.8134   -1.4577 C   0  0  0  0  0  0  0  0  0  0  0  0
    7.3475   -1.4947   -0.2570 C   0  0  0  0  0  0  0  0  0  0  0  0
    6.0692   -0.8951   -0.2636 C   0  0  0  0  0  0  0  0  0  0  0  0
    5.3891   -0.5584    0.9316 C   0  0  0  0  0  0  0  0  0  0  0  0
    5.9841   -0.8166    2.2274 C   0  0  0  0  0  0  0  0  0  0  0  0
    6.4583   -1.0223    3.2629 N   0  0  0  0  0  0  0  0  0  0  0  0
    1.8797    2.3517    1.5890 C   0  0  0  0  0  0  0  0  0  0  0  0
    2.8880    3.1011    1.7255 O   0  0  0  0  0  0  0  0  0  0  0  0
    0.6598    2.9028    1.2534 N   0  0  0  0  0  0  0  0  0  0  0  0
    0.5031    4.3548    1.0712 C   0  0  0  0  0  0  0  0  0  0  0  0
   -1.0201   -5.0230   -1.8021 H   0  0  0  0  0  0  0  0  0  0  0  0
    0.2681   -3.7671   -1.7609 H   0  0  0  0  0  0  0  0  0  0  0  0
   -1.3002   -3.4346   -2.5997 H   0  0  0  0  0  0  0  0  0  0  0  0
   -1.5844   -4.2391    1.5092 H   0  0  0  0  0  0  0  0  0  0  0  0
   -3.1530   -3.9165    0.6602 H   0  0  0  0  0  0  0  0  0  0  0  0
   -2.1284   -5.3081    0.1731 H   0  0  0  0  0  0  0  0  0  0  0  0
   -0.7160   -1.4295   -0.9501 H   0  0  0  0  0  0  0  0  0  0  0  0
   -1.2972   -1.8036    1.9331 H   0  0  0  0  0  0  0  0  0  0  0  0
   -2.8509   -1.5151    1.1098 H   0  0  0  0  0  0  0  0  0  0  0  0
   -4.3632   -0.8818   -0.7996 H   0  0  0  0  0  0  0  0  0  0  0  0
   -2.9780   -0.0752   -1.5591 H   0  0  0  0  0  0  0  0  0  0  0  0
   -5.6527    0.1855   -2.3812 H   0  0  0  0  0  0  0  0  0  0  0  0
   -4.2782    1.2090   -2.8751 H   0  0  0  0  0  0  0  0  0  0  0  0
   -6.0452    2.6788   -2.2398 H   0  0  0  0  0  0  0  0  0  0  0  0
   -4.8039    2.8266   -0.9886 H   0  0  0  0  0  0  0  0  0  0  0  0
   -7.4141    1.4121   -0.8785 H   0  0  0  0  0  0  0  0  0  0  0  0
   -6.2559   -0.1724    0.3077 H   0  0  0  0  0  0  0  0  0  0  0  0
   -6.8726    0.9808    1.5072 H   0  0  0  0  0  0  0  0  0  0  0  0
   -4.6792    2.2238    1.4933 H   0  0  0  0  0  0  0  0  0  0  0  0
   -4.5912    0.5411    2.1104 H   0  0  0  0  0  0  0  0  0  0  0  0
    3.9418    1.1325    2.6972 H   0  0  0  0  0  0  0  0  0  0  0  0
    3.2227   -0.4843    2.7417 H   0  0  0  0  0  0  0  0  0  0  0  0
    3.6941    0.1874   -2.4714 H   0  0  0  0  0  0  0  0  0  0  0  0
    5.6404   -0.7454   -3.6648 H   0  0  0  0  0  0  0  0  0  0  0  0
    7.8705   -1.7911   -3.6050 H   0  0  0  0  0  0  0  0  0  0  0  0
    8.9676   -2.2730   -1.4411 H   0  0  0  0  0  0  0  0  0  0  0  0
    7.8589   -1.7207    0.6698 H   0  0  0  0  0  0  0  0  0  0  0  0
    1.4279    4.9185    1.3119 H   0  0  0  0  0  0  0  0  0  0  0  0
   -0.2909    4.7367    1.7470 H   0  0  0  0  0  0  0  0  0  0  0  0
    0.2418    4.5751    0.0147 H   0  0  0  0  0  0  0  0  0  0  0  0
  1  2  1  0
  2  3  1  0
  2  4  2  3
  4  5  1  0
  5  6  1  0
  6  7  1  0
  7  8  1  0
  8  9  1  0
  9 10  1  0
 10 11  1  0
 11 12  1  0
 12 13  1  0
 13 14  1  0
  7 15  2  0
 15 16  1  0
 16 17  3  0
 15 18  1  0
 18 19  2  0
 19 20  1  0
 20 21  2  0
 20 22  1  0
 22 23  1  0
 23 24  1  0
 24 25  2  0
 25 26  1  0
 26 27  2  0
 27 28  1  0
 28 29  2  0
 29 30  1  0
 30 31  2  0
 31 32  1  0
 32 33  2  0
 33 34  1  0
 34 35  3  0
 22 36  1  0
 36 37  2  0
 36 38  1  0
 38 39  1  0
 19  6  1  0
 33 24  1  0
 14  8  1  0
 38 18  1  0
 32 27  1  0
  1 40  1  0
  1 41  1  0
  1 42  1  0
  3 43  1  0
  3 44  1  0
  3 45  1  0
  4 46  1  0
  5 47  1  0
  5 48  1  0
  9 49  1  0
  9 50  1  0
 10 51  1  0
 10 52  1  0
 11 53  1  0
 11 54  1  0
 12 55  1  0
 13 56  1  0
 13 57  1  0
 14 58  1  0
 14 59  1  0
 23 60  1  0
 23 61  1  0
 26 62  1  0
 28 63  1  0
 29 64  1  0
 30 65  1  0
 31 66  1  0
 39 67  1  0
 39 68  1  0
 39 69  1  0
M  END
$$$$
