
     RDKit          3D

 56 60  0  0  0  0  0  0  0  0999 V2000
   -5.2388   -1.0160    1.8135 N   0  0  0  0  0  0  0  0  0  0  0  0
   -4.8953   -1.3851    0.4355 C   0  0  2  0  0  0  0  0  0  0  0  0
   -3.4269   -1.8197    0.3310 C   0  0  0  0  0  0  0  0  0  0  0  0
   -2.7163   -0.6651   -0.1976 N   0  0  0  0  0  0  0  0  0  0  0  0
   -1.2864   -0.5956   -0.2992 C   0  0  0  0  0  0  0  0  0  0  0  0
   -0.6881    0.5286   -0.7780 N   0  0  0  0  0  0  0  0  0  0  0  0
    0.6630    0.6149   -0.8826 C   0  0  0  0  0  0  0  0  0  0  0  0
    1.4654   -0.4638   -0.5094 C   0  0  0  0  0  0  0  0  0  0  0  0
    2.8582   -0.3499   -0.6109 O   0  0  0  0  0  0  0  0  0  0  0  0
    3.7381   -1.4140   -0.8456 C   0  0  0  0  0  0  0  0  0  0  0  0
    3.4626   -2.6200   -1.4577 C   0  0  0  0  0  0  0  0  0  0  0  0
    4.6149   -3.3054   -1.5586 N   0  0  0  0  0  0  0  0  0  0  0  0
    5.6093   -2.5947   -1.0483 N   0  0  0  0  0  0  0  0  0  0  0  0
    5.1014   -1.4288   -0.5975 C   0  0  0  0  0  0  0  0  0  0  0  0
    5.9271   -0.3654    0.0205 C   0  0  0  0  0  0  0  0  0  0  0  0
    5.4067    0.5143    0.8898 C   0  0  0  0  0  0  0  0  0  0  0  0
    6.2862    1.5594    1.5097 C   0  0  0  0  0  0  0  0  0  0  0  0
    7.1854    2.1807    0.4333 C   0  0  0  0  0  0  0  0  0  0  0  0
    8.0784    3.0492    1.0378 F   0  0  0  0  0  0  0  0  0  0  0  0
    6.3942    2.9135   -0.4378 F   0  0  0  0  0  0  0  0  0  0  0  0
    7.9685    1.1066   -0.3686 C   0  0  0  0  0  0  0  0  0  0  0  0
    7.4173   -0.3329   -0.2333 C   0  0  0  0  0  0  0  0  0  0  0  0
    0.8338   -1.6068    0.0009 C   0  0  0  0  0  0  0  0  0  0  0  0
   -0.5204   -1.6498    0.0918 N   0  0  0  0  0  0  0  0  0  0  0  0
   -3.6018    0.4080   -0.6196 C   0  0  0  0  0  0  0  0  0  0  0  0
   -5.0108   -0.1892   -0.5319 C   0  0  2  0  0  0  0  0  0  0  0  0
   -6.1269    0.8006   -0.2095 C   0  0  0  0  0  0  0  0  0  0  0  0
   -6.0008    1.7492    0.8282 C   0  0  0  0  0  0  0  0  0  0  0  0
   -7.0461    2.6304    1.1198 C   0  0  0  0  0  0  0  0  0  0  0  0
   -6.9056    3.5378    2.1179 F   0  0  0  0  0  0  0  0  0  0  0  0
   -8.2356    2.5721    0.3916 C   0  0  0  0  0  0  0  0  0  0  0  0
   -9.2505    3.4255    0.6758 F   0  0  0  0  0  0  0  0  0  0  0  0
   -8.3847    1.6264   -0.6239 C   0  0  0  0  0  0  0  0  0  0  0  0
   -7.3443    0.7406   -0.9218 C   0  0  0  0  0  0  0  0  0  0  0  0
   -7.5328   -0.1779   -1.9034 F   0  0  0  0  0  0  0  0  0  0  0  0
   -4.4977   -0.3903    2.2064 H   0  0  0  0  0  0  0  0  0  0  0  0
   -5.2459   -1.8855    2.3947 H   0  0  0  0  0  0  0  0  0  0  0  0
   -5.5686   -2.2074    0.1034 H   0  0  0  0  0  0  0  0  0  0  0  0
   -3.0109   -2.1162    1.3188 H   0  0  0  0  0  0  0  0  0  0  0  0
   -3.3256   -2.6693   -0.3786 H   0  0  0  0  0  0  0  0  0  0  0  0
    1.1135    1.5215   -1.2645 H   0  0  0  0  0  0  0  0  0  0  0  0
    2.5099   -2.9604   -1.8409 H   0  0  0  0  0  0  0  0  0  0  0  0
    4.7300   -4.2491   -1.9894 H   0  0  0  0  0  0  0  0  0  0  0  0
    4.3575    0.5008    1.1504 H   0  0  0  0  0  0  0  0  0  0  0  0
    5.6611    2.3445    1.9868 H   0  0  0  0  0  0  0  0  0  0  0  0
    6.9153    1.0872    2.2954 H   0  0  0  0  0  0  0  0  0  0  0  0
    9.0320    1.1005   -0.0436 H   0  0  0  0  0  0  0  0  0  0  0  0
    7.9706    1.3900   -1.4440 H   0  0  0  0  0  0  0  0  0  0  0  0
    7.6714   -0.9003   -1.1548 H   0  0  0  0  0  0  0  0  0  0  0  0
    7.9223   -0.8385    0.6185 H   0  0  0  0  0  0  0  0  0  0  0  0
    1.4113   -2.4506    0.3517 H   0  0  0  0  0  0  0  0  0  0  0  0
   -3.4504    1.2816    0.0448 H   0  0  0  0  0  0  0  0  0  0  0  0
   -3.3738    0.7073   -1.6662 H   0  0  0  0  0  0  0  0  0  0  0  0
   -5.2045   -0.6251   -1.5385 H   0  0  0  0  0  0  0  0  0  0  0  0
   -5.1035    1.8064    1.4277 H   0  0  0  0  0  0  0  0  0  0  0  0
   -9.3121    1.5756   -1.1800 H   0  0  0  0  0  0  0  0  0  0  0  0
  1  2  1  0
  2  3  1  0
  3  4  1  0
  4  5  1  0
  5  6  2  0
  6  7  1  0
  7  8  2  0
  8  9  1  0
  9 10  1  0
 10 11  2  0
 11 12  1  0
 12 13  1  0
 13 14  2  0
 14 15  1  0
 15 16  2  0
 16 17  1  0
 17 18  1  0
 18 19  1  0
 18 20  1  0
 18 21  1  0
 21 22  1  0
  8 23  1  0
 23 24  2  0
  4 25  1  0
 25 26  1  0
 26 27  1  0
 27 28  2  0
 28 29  1  0
 29 30  1  0
 29 31  2  0
 31 32  1  0
 31 33  1  0
 33 34  2  0
 34 35  1  0
 26  2  1  0
 34 27  1  0
 24  5  1  0
 14 10  1  0
 22 15  1  0
  1 36  1  0
  1 37  1  0
  2 38  1  6
  3 39  1  0
  3 40  1  0
  7 41  1  0
 11 42  1  0
 12 43  1  0
 16 44  1  0
 17 45  1  0
 17 46  1  0
 21 47  1  0
 21 48  1  0
 22 49  1  0
 22 50  1  0
 23 51  1  0
 25 52  1  0
 25 53  1  0
 26 54  1  6
 28 55  1  0
 33 56  1  0
M  END
$$$$
