
     RDKit          3D

 52 54  0  0  0  0  0  0  0  0999 V2000
    0.6878    0.0000    0.0000 Cl  0  0  0  0  0  0  0  0  0  0  0  0
    3.3901    1.0239   -1.8149 N   0  0  0  0  0  0  0  0  0  0  0  0
    2.5384    1.7615   -0.8747 C   0  0  1  0  0  0  0  0  0  0  0  0
    1.3920    2.5075   -1.6003 C   0  0  0  0  0  0  0  0  0  0  0  0
    0.4832    1.5874   -2.3779 C   0  0  0  0  0  0  0  0  0  0  0  0
    0.7745    1.3247   -3.5769 O   0  0  0  0  0  0  0  0  0  0  0  0
   -0.6674    0.9652   -1.7711 N   0  0  0  0  0  0  0  0  0  0  0  0
   -1.4530    1.6900   -0.7579 C   0  0  0  0  0  0  0  0  0  0  0  0
   -2.7786    0.9836   -0.4531 C   0  0  0  0  0  0  0  0  0  0  0  0
   -2.5357   -0.4936   -0.1068 C   0  0  2  0  0  0  0  0  0  0  0  0
   -1.5890   -1.2274   -1.1183 C   0  0  1  0  0  0  0  0  0  0  0  0
   -2.3627   -2.4840   -1.6208 C   0  0  0  0  0  0  0  0  0  0  0  0
   -3.6695   -2.3202   -0.9563 C   0  0  0  0  0  0  0  0  0  0  0  0
   -4.5710   -3.2646   -0.6311 N   0  0  0  0  0  0  0  0  0  0  0  0
   -5.2828   -2.7577    0.3721 N   0  0  0  0  0  0  0  0  0  0  0  0
   -4.7657   -1.5396    0.6543 C   0  0  0  0  0  0  0  0  0  0  0  0
   -5.1485   -0.7183    1.8456 C   0  0  0  0  0  0  0  0  0  0  0  0
   -5.4709    0.5632    1.4421 F   0  0  0  0  0  0  0  0  0  0  0  0
   -6.2447   -1.2781    2.4765 F   0  0  0  0  0  0  0  0  0  0  0  0
   -4.0928   -0.6678    2.7362 F   0  0  0  0  0  0  0  0  0  0  0  0
   -3.7649   -1.2513   -0.1950 N   0  0  0  0  0  0  0  0  0  0  0  0
   -1.1488   -0.3247   -2.2855 C   0  0  0  0  0  0  0  0  0  0  0  0
    2.0140    0.8262    0.2342 C   0  0  0  0  0  0  0  0  0  0  0  0
    3.1458    0.2070    1.0164 C   0  0  0  0  0  0  0  0  0  0  0  0
    3.6156   -1.0741    0.6793 C   0  0  0  0  0  0  0  0  0  0  0  0
    4.6808   -1.6439    1.3834 C   0  0  0  0  0  0  0  0  0  0  0  0
    5.1243   -2.8819    1.0522 F   0  0  0  0  0  0  0  0  0  0  0  0
    5.2895   -0.9371    2.4249 C   0  0  0  0  0  0  0  0  0  0  0  0
    6.3233   -1.4882    3.1078 F   0  0  0  0  0  0  0  0  0  0  0  0
    4.8351    0.3412    2.7607 C   0  0  0  0  0  0  0  0  0  0  0  0
    3.7700    0.9163    2.0596 C   0  0  0  0  0  0  0  0  0  0  0  0
    3.3497    2.1621    2.3964 F   0  0  0  0  0  0  0  0  0  0  0  0
   -0.6878    0.0000    0.0000 H   0  0  0  0  0  0  0  0  0  0  0  0
    3.7113    1.6738   -2.5687 H   0  0  0  0  0  0  0  0  0  0  0  0
    2.8416    0.2559   -2.2650 H   0  0  0  0  0  0  0  0  0  0  0  0
    3.1670    2.5398   -0.3870 H   0  0  0  0  0  0  0  0  0  0  0  0
    1.8355    3.2461   -2.3033 H   0  0  0  0  0  0  0  0  0  0  0  0
    0.8131    3.1025   -0.8644 H   0  0  0  0  0  0  0  0  0  0  0  0
   -1.6747    2.7167   -1.1219 H   0  0  0  0  0  0  0  0  0  0  0  0
   -0.8675    1.7671    0.1816 H   0  0  0  0  0  0  0  0  0  0  0  0
   -3.2765    1.4921    0.3993 H   0  0  0  0  0  0  0  0  0  0  0  0
   -3.4477    1.0634   -1.3384 H   0  0  0  0  0  0  0  0  0  0  0  0
   -2.1153   -0.5770    0.9203 H   0  0  0  0  0  0  0  0  0  0  0  0
   -0.6754   -1.5584   -0.5747 H   0  0  0  0  0  0  0  0  0  0  0  0
   -2.4938   -2.5109   -2.7239 H   0  0  0  0  0  0  0  0  0  0  0  0
   -1.8698   -3.4153   -1.2680 H   0  0  0  0  0  0  0  0  0  0  0  0
   -1.9982   -0.1413   -2.9794 H   0  0  0  0  0  0  0  0  0  0  0  0
   -0.3472   -0.8488   -2.8515 H   0  0  0  0  0  0  0  0  0  0  0  0
    1.3816    0.0262   -0.2073 H   0  0  0  0  0  0  0  0  0  0  0  0
    1.3675    1.4017    0.9308 H   0  0  0  0  0  0  0  0  0  0  0  0
    3.1576   -1.6297   -0.1300 H   0  0  0  0  0  0  0  0  0  0  0  0
    5.3106    0.8889    3.5643 H   0  0  0  0  0  0  0  0  0  0  0  0
  2  3  1  0
  3  4  1  0
  4  5  1  0
  5  6  2  0
  5  7  1  0
  7  8  1  0
  8  9  1  0
  9 10  1  0
 10 11  1  0
 11 12  1  0
 12 13  1  0
 13 14  2  0
 14 15  1  0
 15 16  2  0
 16 17  1  0
 17 18  1  0
 17 19  1  0
 17 20  1  0
 16 21  1  0
 11 22  1  0
  3 23  1  0
 23 24  1  0
 24 25  2  0
 25 26  1  0
 26 27  1  0
 26 28  2  0
 28 29  1  0
 28 30  1  0
 30 31  2  0
 31 32  1  0
 22  7  1  0
 31 24  1  0
 21 10  1  0
 21 13  1  0
  1 33  1  0
  2 34  1  0
  2 35  1  0
  3 36  1  1
  4 37  1  0
  4 38  1  0
  8 39  1  0
  8 40  1  0
  9 41  1  0
  9 42  1  0
 10 43  1  1
 11 44  1  1
 12 45  1  0
 12 46  1  0
 22 47  1  0
 22 48  1  0
 23 49  1  0
 23 50  1  0
 25 51  1  0
 30 52  1  0
M  END
$$$$
