
     RDKit          3D

 46 47  0  0  0  0  0  0  0  0999 V2000
   -7.3157   -1.9544   -1.7036 C   0  0  0  0  0  0  0  0  0  0  0  0
   -6.0219   -1.5620   -1.0540 C   0  0  0  0  0  0  0  0  0  0  0  0
   -4.8197   -1.6367   -1.7713 C   0  0  0  0  0  0  0  0  0  0  0  0
   -3.6079   -1.3068   -1.1568 C   0  0  0  0  0  0  0  0  0  0  0  0
   -3.5777   -0.9026    0.1905 C   0  0  0  0  0  0  0  0  0  0  0  0
   -2.3011   -0.5549    0.8603 C   0  0  0  0  0  0  0  0  0  0  0  0
   -2.2093   -0.6776    2.1127 O   0  0  0  0  0  0  0  0  0  0  0  0
   -1.1751   -0.0681    0.1103 N   0  0  0  0  0  0  0  0  0  0  0  0
    0.1243    0.1891    0.7276 C   0  0  0  0  0  0  0  0  0  0  0  0
    0.1055    1.5276    1.4762 C   0  0  0  0  0  0  0  0  0  0  0  0
    1.4501    1.8382    2.1468 C   0  0  0  0  0  0  0  0  0  0  0  0
    2.5096    2.1863    1.1335 C   0  0  0  0  0  0  0  0  0  0  0  0
    2.5078    3.3453    0.6364 O   0  0  0  0  0  0  0  0  0  0  0  0
    3.4835    1.2213    0.6856 N   0  0  0  0  0  0  0  0  0  0  0  0
    3.7935   -0.0093    1.3966 C   0  0  0  0  0  0  0  0  0  0  0  0
    5.0869   -0.5310    0.7842 C   0  0  0  0  0  0  0  0  0  0  0  0
    5.2492    0.2015   -0.5437 C   0  0  0  0  0  0  0  0  0  0  0  0
    4.3957    1.4658   -0.4255 C   0  0  1  0  0  0  0  0  0  0  0  0
    3.6461    1.7422   -1.7040 C   0  0  0  0  0  0  0  0  0  0  0  0
    4.0827    2.7754   -2.5868 N   0  0  0  0  0  0  0  0  0  0  0  0
    2.6495    1.0368   -2.0174 O   0  0  0  0  0  0  0  0  0  0  0  0
   -4.7833   -0.8604    0.9135 C   0  0  0  0  0  0  0  0  0  0  0  0
   -5.9939   -1.1894    0.2971 C   0  0  0  0  0  0  0  0  0  0  0  0
   -7.4839   -3.0426   -1.5636 H   0  0  0  0  0  0  0  0  0  0  0  0
   -8.1646   -1.3956   -1.2549 H   0  0  0  0  0  0  0  0  0  0  0  0
   -7.2926   -1.7280   -2.7909 H   0  0  0  0  0  0  0  0  0  0  0  0
   -4.8191   -1.9564   -2.8062 H   0  0  0  0  0  0  0  0  0  0  0  0
   -2.6973   -1.3993   -1.7329 H   0  0  0  0  0  0  0  0  0  0  0  0
   -1.2740    0.1353   -0.9089 H   0  0  0  0  0  0  0  0  0  0  0  0
    0.3840   -0.6418    1.4192 H   0  0  0  0  0  0  0  0  0  0  0  0
    0.8968    0.2227   -0.0693 H   0  0  0  0  0  0  0  0  0  0  0  0
   -0.1646    2.3461    0.7730 H   0  0  0  0  0  0  0  0  0  0  0  0
   -0.6757    1.4921    2.2653 H   0  0  0  0  0  0  0  0  0  0  0  0
    1.7570    0.9880    2.7894 H   0  0  0  0  0  0  0  0  0  0  0  0
    1.3134    2.7108    2.8217 H   0  0  0  0  0  0  0  0  0  0  0  0
    2.9714   -0.7424    1.2536 H   0  0  0  0  0  0  0  0  0  0  0  0
    3.9436    0.1913    2.4796 H   0  0  0  0  0  0  0  0  0  0  0  0
    5.0493   -1.6324    0.6376 H   0  0  0  0  0  0  0  0  0  0  0  0
    5.9425   -0.2820    1.4502 H   0  0  0  0  0  0  0  0  0  0  0  0
    4.8864   -0.4595   -1.3629 H   0  0  0  0  0  0  0  0  0  0  0  0
    6.3152    0.4534   -0.7348 H   0  0  0  0  0  0  0  0  0  0  0  0
    5.0464    2.3309   -0.1685 H   0  0  0  0  0  0  0  0  0  0  0  0
    4.9196    3.3561   -2.3581 H   0  0  0  0  0  0  0  0  0  0  0  0
    3.5685    2.9591   -3.4768 H   0  0  0  0  0  0  0  0  0  0  0  0
   -4.7912   -0.5646    1.9554 H   0  0  0  0  0  0  0  0  0  0  0  0
   -6.9098   -1.1522    0.8741 H   0  0  0  0  0  0  0  0  0  0  0  0
  1  2  1  0
  2  3  2  0
  3  4  1  0
  4  5  2  0
  5  6  1  0
  6  7  2  0
  6  8  1  0
  8  9  1  0
  9 10  1  0
 10 11  1  0
 11 12  1  0
 12 13  2  0
 12 14  1  0
 14 15  1  0
 15 16  1  0
 16 17  1  0
 17 18  1  0
 18 19  1  0
 19 20  1  0
 19 21  2  0
  5 22  1  0
 22 23  2  0
 23  2  1  0
 18 14  1  0
  1 24  1  0
  1 25  1  0
  1 26  1  0
  3 27  1  0
  4 28  1  0
  8 29  1  0
  9 30  1  0
  9 31  1  0
 10 32  1  0
 10 33  1  0
 11 34  1  0
 11 35  1  0
 15 36  1  0
 15 37  1  0
 16 38  1  0
 16 39  1  0
 17 40  1  0
 17 41  1  0
 18 42  1  1
 20 43  1  0
 20 44  1  0
 22 45  1  0
 23 46  1  0
M  END
$$$$
