
     RDKit          3D

 41 42  0  0  0  0  0  0  0  0999 V2000
    9.2771    1.8482   -1.5664 N   0  0  0  0  0  0  0  0  0  0  0  0
    8.2643    1.3533   -1.3047 C   0  0  0  0  0  0  0  0  0  0  0  0
    7.0044    0.7377   -0.9791 C   0  0  0  0  0  0  0  0  0  0  0  0
    5.8501    1.5200   -0.8634 C   0  0  0  0  0  0  0  0  0  0  0  0
    4.6253    0.9239   -0.5467 C   0  0  0  0  0  0  0  0  0  0  0  0
    4.5389   -0.4669   -0.3472 C   0  0  0  0  0  0  0  0  0  0  0  0
    3.2496   -1.1145   -0.0041 C   0  0  0  0  0  0  0  0  0  0  0  0
    3.2561   -2.2149    0.6135 O   0  0  0  0  0  0  0  0  0  0  0  0
    1.9960   -0.5210   -0.3775 N   0  0  0  0  0  0  0  0  0  0  0  0
    0.7261   -1.0715    0.0967 C   0  0  0  0  0  0  0  0  0  0  0  0
   -0.4576   -0.2627   -0.4451 C   0  0  0  0  0  0  0  0  0  0  0  0
   -1.7922   -0.8366    0.0500 C   0  0  0  0  0  0  0  0  0  0  0  0
   -2.9677   -0.0207   -0.4267 C   0  0  0  0  0  0  0  0  0  0  0  0
   -2.9449    0.4777   -1.5857 O   0  0  0  0  0  0  0  0  0  0  0  0
   -4.1433    0.1429    0.3914 N   0  0  0  0  0  0  0  0  0  0  0  0
   -4.4234   -0.6613    1.5706 C   0  0  0  0  0  0  0  0  0  0  0  0
   -5.9018   -0.4548    1.8700 C   0  0  0  0  0  0  0  0  0  0  0  0
   -6.3027    0.8179    1.1303 C   0  0  0  0  0  0  0  0  0  0  0  0
   -5.2661    0.9928    0.0183 C   0  0  1  0  0  0  0  0  0  0  0  0
   -4.8413    2.3982   -0.0965 C   0  0  0  0  0  0  0  0  0  0  0  0
   -4.5067    3.5023   -0.1871 N   0  0  0  0  0  0  0  0  0  0  0  0
    5.7084   -1.2422   -0.4530 C   0  0  0  0  0  0  0  0  0  0  0  0
    6.9314   -0.6439   -0.7708 C   0  0  0  0  0  0  0  0  0  0  0  0
    5.8976    2.5923   -1.0114 H   0  0  0  0  0  0  0  0  0  0  0  0
    3.7572    1.5593   -0.4346 H   0  0  0  0  0  0  0  0  0  0  0  0
    1.9878    0.2910   -1.0348 H   0  0  0  0  0  0  0  0  0  0  0  0
    0.6369   -2.1276   -0.2397 H   0  0  0  0  0  0  0  0  0  0  0  0
    0.7130   -1.0475    1.2083 H   0  0  0  0  0  0  0  0  0  0  0  0
   -0.4309   -0.2862   -1.5569 H   0  0  0  0  0  0  0  0  0  0  0  0
   -0.3625    0.7935   -0.1085 H   0  0  0  0  0  0  0  0  0  0  0  0
   -1.7746   -0.8566    1.1601 H   0  0  0  0  0  0  0  0  0  0  0  0
   -1.9124   -1.8785   -0.3170 H   0  0  0  0  0  0  0  0  0  0  0  0
   -4.2184   -1.7358    1.3710 H   0  0  0  0  0  0  0  0  0  0  0  0
   -3.8019   -0.3055    2.4205 H   0  0  0  0  0  0  0  0  0  0  0  0
   -6.4860   -1.3134    1.4713 H   0  0  0  0  0  0  0  0  0  0  0  0
   -6.0853   -0.3652    2.9628 H   0  0  0  0  0  0  0  0  0  0  0  0
   -7.3291    0.7303    0.7119 H   0  0  0  0  0  0  0  0  0  0  0  0
   -6.2808    1.6692    1.8485 H   0  0  0  0  0  0  0  0  0  0  0  0
   -5.6851    0.6500   -0.9528 H   0  0  0  0  0  0  0  0  0  0  0  0
    5.6752   -2.3140   -0.3007 H   0  0  0  0  0  0  0  0  0  0  0  0
    7.8195   -1.2590   -0.8542 H   0  0  0  0  0  0  0  0  0  0  0  0
  1  2  3  0
  2  3  1  0
  3  4  2  0
  4  5  1  0
  5  6  2  0
  6  7  1  0
  7  8  2  0
  7  9  1  0
  9 10  1  0
 10 11  1  0
 11 12  1  0
 12 13  1  0
 13 14  2  0
 13 15  1  0
 15 16  1  0
 16 17  1  0
 17 18  1  0
 18 19  1  0
 19 20  1  0
 20 21  3  0
  6 22  1  0
 22 23  2  0
 23  3  1  0
 19 15  1  0
  4 24  1  0
  5 25  1  0
  9 26  1  0
 10 27  1  0
 10 28  1  0
 11 29  1  0
 11 30  1  0
 12 31  1  0
 12 32  1  0
 16 33  1  0
 16 34  1  0
 17 35  1  0
 17 36  1  0
 18 37  1  0
 18 38  1  0
 19 39  1  6
 22 40  1  0
 23 41  1  0
M  END
$$$$
