
     RDKit          3D

 56 58  0  0  0  0  0  0  0  0999 V2000
   -2.1499    1.9073    1.4450 N   0  0  0  0  0  0  0  0  0  0  0  0
   -1.8231    1.3734    0.1163 C   0  0  2  0  0  0  0  0  0  0  0  0
   -2.9250    1.7362   -0.8585 C   0  0  0  0  0  0  0  0  0  0  0  0
   -2.6190    2.4099   -1.8801 O   0  0  0  0  0  0  0  0  0  0  0  0
   -4.2845    1.2837   -0.7030 N   0  0  0  0  0  0  0  0  0  0  0  0
   -5.2004    1.1997   -1.8282 C   0  0  0  0  0  0  0  0  0  0  0  0
   -6.4803    0.5941   -1.2692 C   0  0  2  0  0  0  0  0  0  0  0  0
   -7.5989    1.2012   -1.8150 F   0  0  0  0  0  0  0  0  0  0  0  0
   -6.4137    0.8202    0.2390 C   0  0  1  0  0  0  0  0  0  0  0  0
   -6.9572   -0.2524    0.9260 F   0  0  0  0  0  0  0  0  0  0  0  0
   -4.9339    0.9885    0.5652 C   0  0  0  0  0  0  0  0  0  0  0  0
   -1.5339   -0.1618    0.1321 C   0  0  1  0  0  0  0  0  0  0  0  0
   -1.3509   -0.7143   -1.3108 C   0  0  0  0  0  0  0  0  0  0  0  0
   -0.5001   -1.9871   -1.3294 C   0  0  0  0  0  0  0  0  0  0  0  0
    0.9404   -1.7023   -0.8509 C   0  0  2  0  0  0  0  0  0  0  0  0
    1.5445   -2.9701   -0.4009 N   0  0  0  0  0  0  0  0  0  0  0  0
    3.2343   -3.0655   -0.8096 S   0  0  0  0  0  0  0  0  0  0  0  0
    3.3907   -3.0649   -2.3051 O   0  0  0  0  0  0  0  0  0  0  0  0
    3.7953   -4.3546   -0.2784 O   0  0  0  0  0  0  0  0  0  0  0  0
    4.1331   -1.7181   -0.1160 C   0  0  0  0  0  0  0  0  0  0  0  0
    4.5734   -1.7793    1.2118 C   0  0  0  0  0  0  0  0  0  0  0  0
    5.2547   -0.6979    1.7772 C   0  0  0  0  0  0  0  0  0  0  0  0
    5.5021    0.4589    1.0282 C   0  0  0  0  0  0  0  0  0  0  0  0
    6.1875    1.5161    1.6482 O   0  0  0  0  0  0  0  0  0  0  0  0
    6.5130    2.7603    1.0324 C   0  0  0  0  0  0  0  0  0  0  0  0
    7.1836    3.5505    1.9456 F   0  0  0  0  0  0  0  0  0  0  0  0
    7.3326    2.5505   -0.0623 F   0  0  0  0  0  0  0  0  0  0  0  0
    5.3589    3.4142    0.6395 F   0  0  0  0  0  0  0  0  0  0  0  0
    5.0561    0.5188   -0.3069 C   0  0  0  0  0  0  0  0  0  0  0  0
    4.3759   -0.5639   -0.8719 C   0  0  0  0  0  0  0  0  0  0  0  0
    0.9902   -0.6057    0.2541 C   0  0  0  0  0  0  0  0  0  0  0  0
   -0.3220   -0.5174    1.0426 C   0  0  0  0  0  0  0  0  0  0  0  0
   -2.5350    1.1569    2.0631 H   0  0  0  0  0  0  0  0  0  0  0  0
   -1.2778    2.2636    1.8993 H   0  0  0  0  0  0  0  0  0  0  0  0
   -0.8935    1.8776   -0.2382 H   0  0  0  0  0  0  0  0  0  0  0  0
   -4.7761    0.5499   -2.6244 H   0  0  0  0  0  0  0  0  0  0  0  0
   -5.3885    2.2186   -2.2318 H   0  0  0  0  0  0  0  0  0  0  0  0
   -6.5043   -0.4961   -1.4895 H   0  0  0  0  0  0  0  0  0  0  0  0
   -6.9640    1.7490    0.5079 H   0  0  0  0  0  0  0  0  0  0  0  0
   -4.7994    1.8307    1.2770 H   0  0  0  0  0  0  0  0  0  0  0  0
   -4.5250    0.0514    0.9946 H   0  0  0  0  0  0  0  0  0  0  0  0
   -2.4161   -0.6788    0.5652 H   0  0  0  0  0  0  0  0  0  0  0  0
   -0.8579    0.0434   -1.9600 H   0  0  0  0  0  0  0  0  0  0  0  0
   -2.3471   -0.9360   -1.7526 H   0  0  0  0  0  0  0  0  0  0  0  0
   -0.9819   -2.7496   -0.6774 H   0  0  0  0  0  0  0  0  0  0  0  0
   -0.4723   -2.3998   -2.3614 H   0  0  0  0  0  0  0  0  0  0  0  0
    1.4906   -1.3071   -1.7350 H   0  0  0  0  0  0  0  0  0  0  0  0
    1.4457   -3.0845    0.6343 H   0  0  0  0  0  0  0  0  0  0  0  0
    4.3807   -2.6592    1.8124 H   0  0  0  0  0  0  0  0  0  0  0  0
    5.5885   -0.7566    2.8054 H   0  0  0  0  0  0  0  0  0  0  0  0
    5.2245    1.3952   -0.9162 H   0  0  0  0  0  0  0  0  0  0  0  0
    4.0300   -0.4962   -1.8954 H   0  0  0  0  0  0  0  0  0  0  0  0
    1.1874    0.3820   -0.2175 H   0  0  0  0  0  0  0  0  0  0  0  0
    1.8220   -0.7897    0.9648 H   0  0  0  0  0  0  0  0  0  0  0  0
   -0.5058   -1.5033    1.5243 H   0  0  0  0  0  0  0  0  0  0  0  0
   -0.1985    0.2104    1.8702 H   0  0  0  0  0  0  0  0  0  0  0  0
  1  2  1  0
  2  3  1  0
  3  4  2  0
  3  5  1  0
  5  6  1  0
  6  7  1  0
  7  8  1  0
  7  9  1  0
  9 10  1  0
  9 11  1  0
  2 12  1  0
 12 13  1  0
 13 14  1  0
 14 15  1  0
 15 16  1  0
 16 17  1  0
 17 18  2  0
 17 19  2  0
 17 20  1  0
 20 21  2  0
 21 22  1  0
 22 23  2  0
 23 24  1  0
 24 25  1  0
 25 26  1  0
 25 27  1  0
 25 28  1  0
 23 29  1  0
 29 30  2  0
 15 31  1  0
 31 32  1  0
 11  5  1  0
 32 12  1  0
 30 20  1  0
  1 33  1  0
  1 34  1  0
  2 35  1  6
  6 36  1  0
  6 37  1  0
  7 38  1  1
  9 39  1  6
 11 40  1  0
 11 41  1  0
 12 42  1  1
 13 43  1  0
 13 44  1  0
 14 45  1  0
 14 46  1  0
 15 47  1  6
 16 48  1  0
 21 49  1  0
 22 50  1  0
 29 51  1  0
 30 52  1  0
 31 53  1  0
 31 54  1  0
 32 55  1  0
 32 56  1  0
M  END
$$$$
