
     RDKit          3D

 46 48  0  0  0  0  0  0  0  0999 V2000
   -0.6820    3.2007    1.7418 C   0  0  0  0  0  0  0  0  0  0  0  0
   -0.8306    2.4578    0.4085 C   0  0  0  0  0  0  0  0  0  0  0  0
   -1.4228    3.3715   -0.6712 C   0  0  0  0  0  0  0  0  0  0  0  0
   -1.6634    1.1907    0.5743 C   0  0  0  0  0  0  0  0  0  0  0  0
   -3.0022    1.2951    0.9950 C   0  0  0  0  0  0  0  0  0  0  0  0
   -3.7891    0.1592    1.1584 C   0  0  0  0  0  0  0  0  0  0  0  0
   -3.2604   -1.1029    0.9066 C   0  0  0  0  0  0  0  0  0  0  0  0
   -1.9274   -1.2536    0.4831 C   0  0  0  0  0  0  0  0  0  0  0  0
   -1.3762   -2.6503    0.2159 C   0  0  0  0  0  0  0  0  0  0  0  0
   -1.3882   -3.5017    1.4912 C   0  0  0  0  0  0  0  0  0  0  0  0
   -2.1444   -3.3407   -0.9175 C   0  0  0  0  0  0  0  0  0  0  0  0
   -1.1243   -0.0972    0.3161 C   0  0  0  0  0  0  0  0  0  0  0  0
    0.2355   -0.2387   -0.1136 N   0  0  0  0  0  0  0  0  0  0  0  0
    0.7273   -0.0540   -1.4380 C   0  0  0  0  0  0  0  0  0  0  0  0
   -0.0038    0.0455   -2.4588 O   0  0  0  0  0  0  0  0  0  0  0  0
    2.1809    0.0390   -1.4162 C   0  0  0  0  0  0  0  0  0  0  0  0
    3.0726    0.2700   -2.4594 C   0  0  0  0  0  0  0  0  0  0  0  0
    4.4361    0.3806   -2.1513 C   0  0  0  0  0  0  0  0  0  0  0  0
    4.8813    0.2587   -0.8199 C   0  0  0  0  0  0  0  0  0  0  0  0
    3.9694    0.0165    0.2316 C   0  0  0  0  0  0  0  0  0  0  0  0
    4.4461   -0.1353    1.5782 N   0  0  0  0  0  0  0  0  0  0  0  0
    3.8841   -0.9234    2.3651 O   0  0  0  0  0  0  0  0  0  0  0  0
    5.6421    0.4330    1.9521 O   0  0  0  0  0  0  0  0  0  0  0  0
    2.6046   -0.0788   -0.1024 C   0  0  0  0  0  0  0  0  0  0  0  0
    1.3945   -0.2180    0.7198 C   0  0  0  0  0  0  0  0  0  0  0  0
    1.3467   -0.2343    1.9778 O   0  0  0  0  0  0  0  0  0  0  0  0
    0.0082    4.0630    1.6215 H   0  0  0  0  0  0  0  0  0  0  0  0
   -0.2554    2.5201    2.5095 H   0  0  0  0  0  0  0  0  0  0  0  0
   -1.6603    3.5823    2.1027 H   0  0  0  0  0  0  0  0  0  0  0  0
    0.1979    2.2133    0.0758 H   0  0  0  0  0  0  0  0  0  0  0  0
   -2.4204    3.7563   -0.3717 H   0  0  0  0  0  0  0  0  0  0  0  0
   -1.5240    2.8132   -1.6265 H   0  0  0  0  0  0  0  0  0  0  0  0
   -0.7503    4.2383   -0.8463 H   0  0  0  0  0  0  0  0  0  0  0  0
   -3.4437    2.2616    1.1996 H   0  0  0  0  0  0  0  0  0  0  0  0
   -4.8170    0.2578    1.4834 H   0  0  0  0  0  0  0  0  0  0  0  0
   -3.8978   -1.9665    1.0441 H   0  0  0  0  0  0  0  0  0  0  0  0
   -0.3175   -2.5981   -0.1134 H   0  0  0  0  0  0  0  0  0  0  0  0
   -2.4254   -3.6936    1.8383 H   0  0  0  0  0  0  0  0  0  0  0  0
   -0.8952   -4.4789    1.3004 H   0  0  0  0  0  0  0  0  0  0  0  0
   -0.8283   -2.9829    2.2987 H   0  0  0  0  0  0  0  0  0  0  0  0
   -1.6661   -4.3128   -1.1637 H   0  0  0  0  0  0  0  0  0  0  0  0
   -2.1274   -2.7054   -1.8290 H   0  0  0  0  0  0  0  0  0  0  0  0
   -3.2002   -3.5319   -0.6317 H   0  0  0  0  0  0  0  0  0  0  0  0
    2.7239    0.3740   -3.4787 H   0  0  0  0  0  0  0  0  0  0  0  0
    5.1516    0.5624   -2.9426 H   0  0  0  0  0  0  0  0  0  0  0  0
    5.9411    0.3384   -0.6148 H   0  0  0  0  0  0  0  0  0  0  0  0
  1  2  1  0
  2  3  1  0
  2  4  1  0
  4  5  2  0
  5  6  1  0
  6  7  2  0
  7  8  1  0
  8  9  1  0
  9 10  1  0
  9 11  1  0
  8 12  2  0
 12 13  1  0
 13 14  1  0
 14 15  2  0
 14 16  1  0
 16 17  2  0
 17 18  1  0
 18 19  2  0
 19 20  1  0
 20 21  1  0
 21 22  2  0
 21 23  1  0
 20 24  2  0
 24 25  1  0
 25 26  2  0
 12  4  1  0
 25 13  1  0
 24 16  1  0
  1 27  1  0
  1 28  1  0
  1 29  1  0
  2 30  1  0
  3 31  1  0
  3 32  1  0
  3 33  1  0
  5 34  1  0
  6 35  1  0
  7 36  1  0
  9 37  1  0
 10 38  1  0
 10 39  1  0
 10 40  1  0
 11 41  1  0
 11 42  1  0
 11 43  1  0
 17 44  1  0
 18 45  1  0
 19 46  1  0
M  CHG  2  21   1  23  -1
M  END
$$$$
