
     RDKit          3D

 59 62  0  0  0  0  0  0  0  0999 V2000
    2.9785    0.3160    1.6145 N   0  0  0  0  0  0  0  0  0  0  0  0
    3.0553   -1.0142    0.9993 C   0  0  1  0  0  0  0  0  0  0  0  0
    2.2209   -1.1003   -0.2991 C   0  0  0  0  0  0  0  0  0  0  0  0
    0.7558   -0.9345   -0.0217 C   0  0  0  0  0  0  0  0  0  0  0  0
    0.0680   -1.9454    0.2862 O   0  0  0  0  0  0  0  0  0  0  0  0
    0.1546    0.3716   -0.0728 N   0  0  0  0  0  0  0  0  0  0  0  0
   -1.2607    0.6361    0.2660 C   0  0  0  0  0  0  0  0  0  0  0  0
   -2.1608   -0.1434   -0.7126 C   0  0  0  0  0  0  0  0  0  0  0  0
   -1.7796   -0.2508   -2.0663 C   0  0  0  0  0  0  0  0  0  0  0  0
   -2.5905   -0.9090   -2.9893 C   0  0  0  0  0  0  0  0  0  0  0  0
   -3.8119   -1.4488   -2.5925 C   0  0  0  0  0  0  0  0  0  0  0  0
   -4.2489   -1.3220   -1.2642 C   0  0  0  0  0  0  0  0  0  0  0  0
   -5.5646   -1.8802   -0.8566 C   0  0  0  0  0  0  0  0  0  0  0  0
   -6.2713   -1.6055    0.3171 C   0  0  0  0  0  0  0  0  0  0  0  0
   -7.4606   -2.2546    0.4390 N   0  0  0  0  0  0  0  0  0  0  0  0
   -7.7256   -3.0505   -0.6187 C   0  0  0  0  0  0  0  0  0  0  0  0
   -6.4884   -2.9729   -1.7500 S   0  0  0  0  0  0  0  0  0  0  0  0
   -3.4210   -0.6610   -0.3358 C   0  0  0  0  0  0  0  0  0  0  0  0
   -1.5548    2.1537    0.0328 C   0  0  0  0  0  0  0  0  0  0  0  0
   -0.9554    3.0675    1.1070 C   0  0  0  0  0  0  0  0  0  0  0  0
   -1.7602    2.7534    2.6633 S   0  0  0  0  0  0  0  0  0  0  0  0
   -0.7652    2.8529    3.7851 O   0  0  0  0  0  0  0  0  0  0  0  0
   -2.8705    3.7420    2.8823 O   0  0  0  0  0  0  0  0  0  0  0  0
   -2.4256    1.1048    2.5774 C   0  0  0  0  0  0  0  0  0  0  0  0
   -1.4712    0.2137    1.7702 C   0  0  0  0  0  0  0  0  0  0  0  0
    4.5290   -1.4132    0.7702 C   0  0  0  0  0  0  0  0  0  0  0  0
    5.2637   -0.4926   -0.1788 C   0  0  0  0  0  0  0  0  0  0  0  0
    5.8627    0.6826    0.3077 C   0  0  0  0  0  0  0  0  0  0  0  0
    6.5282    1.5510   -0.5626 C   0  0  0  0  0  0  0  0  0  0  0  0
    7.0989    2.6832   -0.0817 F   0  0  0  0  0  0  0  0  0  0  0  0
    6.6041    1.2531   -1.9261 C   0  0  0  0  0  0  0  0  0  0  0  0
    7.2489    2.0947   -2.7715 F   0  0  0  0  0  0  0  0  0  0  0  0
    6.0162    0.0854   -2.4194 C   0  0  0  0  0  0  0  0  0  0  0  0
    5.3488   -0.7872   -1.5536 C   0  0  0  0  0  0  0  0  0  0  0  0
    4.7899   -1.9167   -2.0572 F   0  0  0  0  0  0  0  0  0  0  0  0
    2.0328    0.4383    2.0430 H   0  0  0  0  0  0  0  0  0  0  0  0
    3.0847    1.0538    0.8807 H   0  0  0  0  0  0  0  0  0  0  0  0
    2.6406   -1.7551    1.7207 H   0  0  0  0  0  0  0  0  0  0  0  0
    2.3784   -2.0924   -0.7754 H   0  0  0  0  0  0  0  0  0  0  0  0
    2.5496   -0.3272   -1.0263 H   0  0  0  0  0  0  0  0  0  0  0  0
    0.7671    1.1645   -0.3715 H   0  0  0  0  0  0  0  0  0  0  0  0
   -0.8495    0.1793   -2.4153 H   0  0  0  0  0  0  0  0  0  0  0  0
   -2.2742   -0.9925   -4.0211 H   0  0  0  0  0  0  0  0  0  0  0  0
   -4.4223   -1.9461   -3.3350 H   0  0  0  0  0  0  0  0  0  0  0  0
   -5.9319   -0.9200    1.0803 H   0  0  0  0  0  0  0  0  0  0  0  0
   -8.6221   -3.6484   -0.7091 H   0  0  0  0  0  0  0  0  0  0  0  0
   -3.7574   -0.5671    0.6810 H   0  0  0  0  0  0  0  0  0  0  0  0
   -2.6536    2.3302   -0.0049 H   0  0  0  0  0  0  0  0  0  0  0  0
   -1.1568    2.4644   -0.9585 H   0  0  0  0  0  0  0  0  0  0  0  0
   -1.1094    4.1303    0.8246 H   0  0  0  0  0  0  0  0  0  0  0  0
    0.1351    2.8845    1.2079 H   0  0  0  0  0  0  0  0  0  0  0  0
   -3.4283    1.1436    2.1064 H   0  0  0  0  0  0  0  0  0  0  0  0
   -2.5370    0.7023    3.6064 H   0  0  0  0  0  0  0  0  0  0  0  0
   -0.4931    0.2399    2.3004 H   0  0  0  0  0  0  0  0  0  0  0  0
   -1.8036   -0.8435    1.8448 H   0  0  0  0  0  0  0  0  0  0  0  0
    4.5730   -2.4597    0.3971 H   0  0  0  0  0  0  0  0  0  0  0  0
    5.0533   -1.4198    1.7512 H   0  0  0  0  0  0  0  0  0  0  0  0
    5.8103    0.9268    1.3616 H   0  0  0  0  0  0  0  0  0  0  0  0
    6.0778   -0.1446   -3.4754 H   0  0  0  0  0  0  0  0  0  0  0  0
  1  2  1  0
  2  3  1  0
  3  4  1  0
  4  5  2  0
  4  6  1  0
  6  7  1  0
  7  8  1  0
  8  9  2  0
  9 10  1  0
 10 11  2  0
 11 12  1  0
 12 13  1  0
 13 14  2  0
 14 15  1  0
 15 16  2  0
 16 17  1  0
 12 18  2  0
  7 19  1  0
 19 20  1  0
 20 21  1  0
 21 22  2  0
 21 23  2  0
 21 24  1  0
 24 25  1  0
  2 26  1  0
 26 27  1  0
 27 28  2  0
 28 29  1  0
 29 30  1  0
 29 31  2  0
 31 32  1  0
 31 33  1  0
 33 34  2  0
 34 35  1  0
 25  7  1  0
 34 27  1  0
 18  8  1  0
 17 13  1  0
  1 36  1  0
  1 37  1  0
  2 38  1  1
  3 39  1  0
  3 40  1  0
  6 41  1  0
  9 42  1  0
 10 43  1  0
 11 44  1  0
 14 45  1  0
 16 46  1  0
 18 47  1  0
 19 48  1  0
 19 49  1  0
 20 50  1  0
 20 51  1  0
 24 52  1  0
 24 53  1  0
 25 54  1  0
 25 55  1  0
 26 56  1  0
 26 57  1  0
 28 58  1  0
 33 59  1  0
M  END
$$$$
