
     RDKit          3D

 54 57  0  0  0  0  0  0  0  0999 V2000
   -6.9861   -1.0816   -0.5907 C   0  0  0  0  0  0  0  0  0  0  0  0
   -6.1770    0.0460   -0.2721 O   0  0  0  0  0  0  0  0  0  0  0  0
   -4.7842    0.0033   -0.1002 C   0  0  0  0  0  0  0  0  0  0  0  0
   -4.0505   -1.1910   -0.2385 C   0  0  0  0  0  0  0  0  0  0  0  0
   -2.6628   -1.1970   -0.0458 C   0  0  0  0  0  0  0  0  0  0  0  0
   -1.9961   -0.0084    0.2649 C   0  0  0  0  0  0  0  0  0  0  0  0
   -2.7176    1.1874    0.3863 C   0  0  0  0  0  0  0  0  0  0  0  0
   -4.1150    1.1972    0.2121 C   0  0  0  0  0  0  0  0  0  0  0  0
   -4.8728    2.3726    0.3368 O   0  0  0  0  0  0  0  0  0  0  0  0
   -4.3317    3.6527    0.6471 C   0  0  0  0  0  0  0  0  0  0  0  0
   -0.4978   -0.0414    0.4309 C   0  0  2  0  0  0  0  0  0  0  0  0
    0.2320    0.1305   -0.9287 C   0  0  0  0  0  0  0  0  0  0  0  0
    1.3645   -0.8879   -1.1607 C   0  0  0  0  0  0  0  0  0  0  0  0
    2.2129   -0.4527   -2.2745 N   0  0  0  0  0  0  0  0  0  0  0  0
    2.2094   -1.1610    0.1163 C   0  0  1  0  0  0  0  0  0  0  0  0
    3.3370   -0.1507    0.3039 C   0  0  0  0  0  0  0  0  0  0  0  0
    3.0746    1.1810    0.6774 C   0  0  0  0  0  0  0  0  0  0  0  0
    4.1177    2.1005    0.8064 C   0  0  0  0  0  0  0  0  0  0  0  0
    5.4349    1.7073    0.5653 C   0  0  0  0  0  0  0  0  0  0  0  0
    5.7202    0.3834    0.2042 C   0  0  0  0  0  0  0  0  0  0  0  0
    7.1304   -0.0292   -0.0986 C   0  0  0  0  0  0  0  0  0  0  0  0
    4.6690   -0.5352    0.0577 C   0  0  0  0  0  0  0  0  0  0  0  0
    1.3535   -1.3188    1.4080 C   0  0  0  0  0  0  0  0  0  0  0  0
   -0.0987   -1.2670    1.1571 N   0  0  0  0  0  0  0  0  0  0  0  0
   -0.6747   -2.5626    0.7057 C   0  0  0  0  0  0  0  0  0  0  0  0
   -1.8527   -2.4381   -0.2831 C   0  0  0  0  0  0  0  0  0  0  0  0
   -8.0452   -0.7594   -0.6609 H   0  0  0  0  0  0  0  0  0  0  0  0
   -6.9006   -1.8504    0.2061 H   0  0  0  0  0  0  0  0  0  0  0  0
   -6.6790   -1.5078   -1.5691 H   0  0  0  0  0  0  0  0  0  0  0  0
   -4.5485   -2.1143   -0.5025 H   0  0  0  0  0  0  0  0  0  0  0  0
   -2.1858    2.1011    0.6152 H   0  0  0  0  0  0  0  0  0  0  0  0
   -3.6094    3.9624   -0.1374 H   0  0  0  0  0  0  0  0  0  0  0  0
   -5.1553    4.3948    0.6841 H   0  0  0  0  0  0  0  0  0  0  0  0
   -3.8325    3.6262    1.6387 H   0  0  0  0  0  0  0  0  0  0  0  0
   -0.2181    0.8229    1.0747 H   0  0  0  0  0  0  0  0  0  0  0  0
   -0.4868    0.0394   -1.7738 H   0  0  0  0  0  0  0  0  0  0  0  0
    0.6416    1.1620   -0.9896 H   0  0  0  0  0  0  0  0  0  0  0  0
    0.8886   -1.8474   -1.4607 H   0  0  0  0  0  0  0  0  0  0  0  0
    1.6193   -0.3740   -3.1325 H   0  0  0  0  0  0  0  0  0  0  0  0
    2.9078   -1.2092   -2.4732 H   0  0  0  0  0  0  0  0  0  0  0  0
    2.6766   -2.1578   -0.0544 H   0  0  0  0  0  0  0  0  0  0  0  0
    2.0661    1.5127    0.8749 H   0  0  0  0  0  0  0  0  0  0  0  0
    3.9035    3.1227    1.0909 H   0  0  0  0  0  0  0  0  0  0  0  0
    6.2316    2.4349    0.6598 H   0  0  0  0  0  0  0  0  0  0  0  0
    7.3342    0.1195   -1.1795 H   0  0  0  0  0  0  0  0  0  0  0  0
    7.2882   -1.0988    0.1565 H   0  0  0  0  0  0  0  0  0  0  0  0
    7.8520    0.5741    0.4926 H   0  0  0  0  0  0  0  0  0  0  0  0
    4.8909   -1.5492   -0.2529 H   0  0  0  0  0  0  0  0  0  0  0  0
    1.6008   -0.5323    2.1531 H   0  0  0  0  0  0  0  0  0  0  0  0
    1.6155   -2.2742    1.9163 H   0  0  0  0  0  0  0  0  0  0  0  0
    0.0993   -3.2189    0.2498 H   0  0  0  0  0  0  0  0  0  0  0  0
   -1.0409   -3.0961    1.6089 H   0  0  0  0  0  0  0  0  0  0  0  0
   -2.4897   -3.3457   -0.1997 H   0  0  0  0  0  0  0  0  0  0  0  0
   -1.4626   -2.4032   -1.3224 H   0  0  0  0  0  0  0  0  0  0  0  0
  1  2  1  0
  2  3  1  0
  3  4  2  0
  4  5  1  0
  5  6  2  0
  6  7  1  0
  7  8  2  0
  8  9  1  0
  9 10  1  0
  6 11  1  0
 11 12  1  0
 12 13  1  0
 13 14  1  0
 13 15  1  0
 15 16  1  0
 16 17  2  0
 17 18  1  0
 18 19  2  0
 19 20  1  0
 20 21  1  0
 20 22  2  0
 15 23  1  0
 23 24  1  0
 24 25  1  0
 25 26  1  0
  8  3  1  0
 24 11  1  0
 26  5  1  0
 22 16  1  0
  1 27  1  0
  1 28  1  0
  1 29  1  0
  4 30  1  0
  7 31  1  0
 10 32  1  0
 10 33  1  0
 10 34  1  0
 11 35  1  1
 12 36  1  0
 12 37  1  0
 13 38  1  0
 14 39  1  0
 14 40  1  0
 15 41  1  6
 17 42  1  0
 18 43  1  0
 19 44  1  0
 21 45  1  0
 21 46  1  0
 21 47  1  0
 22 48  1  0
 23 49  1  0
 23 50  1  0
 25 51  1  0
 25 52  1  0
 26 53  1  0
 26 54  1  0
M  END
$$$$
