
     RDKit          3D

 52 56  0  0  0  0  0  0  0  0999 V2000
   -2.9357   -1.6358    1.0748 N   0  0  0  0  0  0  0  0  0  0  0  0
   -2.5691   -0.2269    0.8990 C   0  0  1  0  0  0  0  0  0  0  0  0
   -1.0853   -0.0312    1.2570 C   0  0  0  0  0  0  0  0  0  0  0  0
   -0.6352    1.4036    0.8942 C   0  0  1  0  0  0  0  0  0  0  0  0
    0.8051    1.6799    1.1414 N   0  0  0  0  0  0  0  0  0  0  0  0
    1.1479    1.6723    2.5887 C   0  0  0  0  0  0  0  0  0  0  0  0
    2.0880    0.5451    2.7481 C   0  0  0  0  0  0  0  0  0  0  0  0
    3.1302    0.4612    3.5929 N   0  0  0  0  0  0  0  0  0  0  0  0
    4.1364   -0.1337    2.9664 N   0  0  0  0  0  0  0  0  0  0  0  0
    3.7185   -0.4216    1.7140 C   0  0  0  0  0  0  0  0  0  0  0  0
    4.6120   -0.8177    0.6655 N   0  0  0  0  0  0  0  0  0  0  0  0
    4.1601   -1.4222   -0.5603 C   0  0  0  0  0  0  0  0  0  0  0  0
    3.0147   -1.9450   -0.6108 O   0  0  0  0  0  0  0  0  0  0  0  0
    5.0156   -1.4860   -1.8034 C   0  0  0  0  0  0  0  0  0  0  0  0
    6.1374   -0.4662   -1.9364 C   0  0  0  0  0  0  0  0  0  0  0  0
    6.4600   -1.9171   -1.6018 C   0  0  0  0  0  0  0  0  0  0  0  0
    2.4122    0.0113    1.5617 C   0  0  0  0  0  0  0  0  0  0  0  0
    1.7559    0.7551    0.4643 C   0  0  0  0  0  0  0  0  0  0  0  0
   -1.0174    1.7151   -0.5631 C   0  0  0  0  0  0  0  0  0  0  0  0
   -2.4130    1.5768   -0.7489 O   0  0  0  0  0  0  0  0  0  0  0  0
   -2.8115    0.2257   -0.5675 C   0  0  2  0  0  0  0  0  0  0  0  0
   -4.2785    0.1096   -0.9313 C   0  0  0  0  0  0  0  0  0  0  0  0
   -5.2087    1.0258   -0.4044 C   0  0  0  0  0  0  0  0  0  0  0  0
   -6.5674    0.9148   -0.7140 C   0  0  0  0  0  0  0  0  0  0  0  0
   -7.4534    1.8050   -0.2034 F   0  0  0  0  0  0  0  0  0  0  0  0
   -7.0135   -0.1140   -1.5462 C   0  0  0  0  0  0  0  0  0  0  0  0
   -6.1029   -1.0357   -2.0675 C   0  0  0  0  0  0  0  0  0  0  0  0
   -4.7416   -0.9316   -1.7625 C   0  0  0  0  0  0  0  0  0  0  0  0
   -3.8830   -1.8511   -2.2717 F   0  0  0  0  0  0  0  0  0  0  0  0
   -2.7053   -1.9187    2.0553 H   0  0  0  0  0  0  0  0  0  0  0  0
   -3.9749   -1.7221    1.0000 H   0  0  0  0  0  0  0  0  0  0  0  0
   -3.1816    0.4016    1.5864 H   0  0  0  0  0  0  0  0  0  0  0  0
   -0.4902   -0.7920    0.7115 H   0  0  0  0  0  0  0  0  0  0  0  0
   -0.9478   -0.2125    2.3438 H   0  0  0  0  0  0  0  0  0  0  0  0
   -1.2299    2.1076    1.5213 H   0  0  0  0  0  0  0  0  0  0  0  0
    0.2708    1.5464    3.2598 H   0  0  0  0  0  0  0  0  0  0  0  0
    1.6605    2.6245    2.8424 H   0  0  0  0  0  0  0  0  0  0  0  0
    3.2133    0.9276    4.5231 H   0  0  0  0  0  0  0  0  0  0  0  0
    5.6332   -0.7262    0.8565 H   0  0  0  0  0  0  0  0  0  0  0  0
    4.5577   -1.8143   -2.7613 H   0  0  0  0  0  0  0  0  0  0  0  0
    6.2812    0.2444   -1.0972 H   0  0  0  0  0  0  0  0  0  0  0  0
    6.3794   -0.1865   -2.9835 H   0  0  0  0  0  0  0  0  0  0  0  0
    6.7912   -2.0875   -0.5567 H   0  0  0  0  0  0  0  0  0  0  0  0
    6.8908   -2.4867   -2.4522 H   0  0  0  0  0  0  0  0  0  0  0  0
    1.2831    0.0610   -0.2569 H   0  0  0  0  0  0  0  0  0  0  0  0
    2.5139    1.3588   -0.0792 H   0  0  0  0  0  0  0  0  0  0  0  0
   -0.7427    2.7684   -0.7835 H   0  0  0  0  0  0  0  0  0  0  0  0
   -0.4615    1.0812   -1.2884 H   0  0  0  0  0  0  0  0  0  0  0  0
   -2.2193   -0.4298   -1.2482 H   0  0  0  0  0  0  0  0  0  0  0  0
   -4.8801    1.8253    0.2482 H   0  0  0  0  0  0  0  0  0  0  0  0
   -8.0657   -0.2006   -1.7850 H   0  0  0  0  0  0  0  0  0  0  0  0
   -6.4540   -1.8353   -2.7069 H   0  0  0  0  0  0  0  0  0  0  0  0
  1  2  1  0
  2  3  1  0
  3  4  1  0
  4  5  1  0
  5  6  1  0
  6  7  1  0
  7  8  1  0
  8  9  1  0
  9 10  2  0
 10 11  1  0
 11 12  1  0
 12 13  2  0
 12 14  1  0
 14 15  1  0
 15 16  1  0
 10 17  1  0
 17 18  1  0
  4 19  1  0
 19 20  1  0
 20 21  1  0
 21 22  1  0
 22 23  2  0
 23 24  1  0
 24 25  1  0
 24 26  2  0
 26 27  1  0
 27 28  2  0
 28 29  1  0
 21  2  1  0
 28 22  1  0
 18  5  1  0
 17  7  2  0
 16 14  1  0
  1 30  1  0
  1 31  1  0
  2 32  1  1
  3 33  1  0
  3 34  1  0
  4 35  1  1
  6 36  1  0
  6 37  1  0
  8 38  1  0
 11 39  1  0
 14 40  1  0
 15 41  1  0
 15 42  1  0
 16 43  1  0
 16 44  1  0
 18 45  1  0
 18 46  1  0
 19 47  1  0
 19 48  1  0
 21 49  1  6
 23 50  1  0
 26 51  1  0
 27 52  1  0
M  END
$$$$
