
     RDKit          3D

 28 28  0  0  0  0  0  0  0  0999 V2000
    2.3205   -0.4716    1.6331 C   0  0  0  0  0  0  0  0  0  0  0  0
    2.2958   -0.1268    0.1393 C   0  0  2  0  0  0  0  0  0  0  0  0
    3.4986    0.6162   -0.2483 N   0  0  0  0  0  0  0  0  0  0  0  0
    1.0530    0.6697   -0.1849 C   0  0  0  0  0  0  0  0  0  0  0  0
    1.1088    1.9303   -0.1802 O   0  0  0  0  0  0  0  0  0  0  0  0
   -0.2147    0.0178   -0.4057 N   0  0  0  0  0  0  0  0  0  0  0  0
   -0.3425   -1.3611   -0.8513 C   0  0  0  0  0  0  0  0  0  0  0  0
   -1.7777   -1.4992   -1.3465 C   0  0  1  0  0  0  0  0  0  0  0  0
   -2.4735   -3.0932   -0.9344 Cl  0  0  0  0  0  0  0  0  0  0  0  0
   -2.5497   -0.3517   -0.6988 C   0  0  0  0  0  0  0  0  0  0  0  0
   -1.4960    0.7154   -0.3817 C   0  0  1  0  0  0  0  0  0  0  0  0
   -1.7567    1.4125    1.0426 B   0  0  0  0  0  0  0  0  0  0  0  0
   -1.6440    0.6345    2.2749 O   0  0  0  0  0  0  0  0  0  0  0  0
   -2.0587    2.8399    1.1113 O   0  0  0  0  0  0  0  0  0  0  0  0
    2.3264    0.4533    2.2492 H   0  0  0  0  0  0  0  0  0  0  0  0
    3.2268   -1.0677    1.8711 H   0  0  0  0  0  0  0  0  0  0  0  0
    1.4264   -1.0740    1.9017 H   0  0  0  0  0  0  0  0  0  0  0  0
    2.2848   -1.0771   -0.4347 H   0  0  0  0  0  0  0  0  0  0  0  0
    3.6349    1.4276    0.3986 H   0  0  0  0  0  0  0  0  0  0  0  0
    4.3286   -0.0103   -0.1331 H   0  0  0  0  0  0  0  0  0  0  0  0
   -0.1363   -2.0428    0.0020 H   0  0  0  0  0  0  0  0  0  0  0  0
    0.3621   -1.5710   -1.6851 H   0  0  0  0  0  0  0  0  0  0  0  0
   -1.7990   -1.3731   -2.4518 H   0  0  0  0  0  0  0  0  0  0  0  0
   -3.0535   -0.7200    0.2231 H   0  0  0  0  0  0  0  0  0  0  0  0
   -3.3254    0.0453   -1.3895 H   0  0  0  0  0  0  0  0  0  0  0  0
   -1.5038    1.4921   -1.1776 H   0  0  0  0  0  0  0  0  0  0  0  0
   -2.5611    0.3051    2.4512 H   0  0  0  0  0  0  0  0  0  0  0  0
   -1.1743    3.2801    1.1831 H   0  0  0  0  0  0  0  0  0  0  0  0
  1  2  1  0
  2  3  1  0
  2  4  1  0
  4  5  2  0
  4  6  1  0
  6  7  1  0
  7  8  1  0
  8  9  1  0
  8 10  1  0
 10 11  1  0
 11 12  1  0
 12 13  1  0
 12 14  1  0
 11  6  1  0
  1 15  1  0
  1 16  1  0
  1 17  1  0
  2 18  1  6
  3 19  1  0
  3 20  1  0
  7 21  1  0
  7 22  1  0
  8 23  1  6
 10 24  1  0
 10 25  1  0
 11 26  1  6
 13 27  1  0
 14 28  1  0
M  END
$$$$
