
     RDKit          3D

 55 57  0  0  0  0  0  0  0  0999 V2000
    5.7421   -0.3133    0.3785 N   0  0  0  0  0  0  0  0  0  0  0  0
    4.4817   -1.0209    0.6088 C   0  0  2  0  0  0  0  0  0  0  0  0
    4.1404   -1.9673   -0.5334 C   0  0  0  0  0  0  0  0  0  0  0  0
    3.6282   -3.0791   -0.2273 O   0  0  0  0  0  0  0  0  0  0  0  0
    4.3004   -1.6384   -1.9345 N   0  0  0  0  0  0  0  0  0  0  0  0
    5.2694   -0.6775   -2.4525 C   0  0  0  0  0  0  0  0  0  0  0  0
    5.0037   -0.4893   -3.9360 C   0  0  0  0  0  0  0  0  0  0  0  0
    4.2738   -2.0167   -4.5772 S   0  0  0  0  0  0  0  0  0  0  0  0
    3.5681   -2.3902   -2.9478 C   0  0  0  0  0  0  0  0  0  0  0  0
    3.3277   -0.0295    0.9434 C   0  0  1  0  0  0  0  0  0  0  0  0
    3.0361    0.9816   -0.1956 C   0  0  0  0  0  0  0  0  0  0  0  0
    1.6954    1.6834    0.0353 C   0  0  0  0  0  0  0  0  0  0  0  0
    0.5169    0.6785   -0.0256 C   0  0  2  0  0  0  0  0  0  0  0  0
   -0.5844    1.1456    0.8232 N   0  0  0  0  0  0  0  0  0  0  0  0
   -1.9629    0.9325    0.4877 C   0  0  0  0  0  0  0  0  0  0  0  0
   -2.2721    0.4189   -0.6221 O   0  0  0  0  0  0  0  0  0  0  0  0
   -2.9864    1.3431    1.4070 N   0  0  0  0  0  0  0  0  0  0  0  0
   -4.3729    0.9813    1.2861 C   0  0  0  0  0  0  0  0  0  0  0  0
   -4.7637   -0.2740    0.7888 C   0  0  0  0  0  0  0  0  0  0  0  0
   -6.1181   -0.6093    0.7046 C   0  0  0  0  0  0  0  0  0  0  0  0
   -7.1036    0.2905    1.1259 C   0  0  0  0  0  0  0  0  0  0  0  0
   -8.4482   -0.0994    1.0155 O   0  0  0  0  0  0  0  0  0  0  0  0
   -9.5700    0.6933    1.3985 C   0  0  0  0  0  0  0  0  0  0  0  0
   -9.5951    1.8683    0.6688 F   0  0  0  0  0  0  0  0  0  0  0  0
   -9.5127    0.9787    2.7509 F   0  0  0  0  0  0  0  0  0  0  0  0
  -10.7278   -0.0150    1.1417 F   0  0  0  0  0  0  0  0  0  0  0  0
   -6.7126    1.5397    1.6447 C   0  0  0  0  0  0  0  0  0  0  0  0
   -5.3580    1.8748    1.7299 C   0  0  0  0  0  0  0  0  0  0  0  0
    0.9257   -0.7582    0.3824 C   0  0  0  0  0  0  0  0  0  0  0  0
    2.0412   -0.7587    1.4358 C   0  0  0  0  0  0  0  0  0  0  0  0
    5.9755    0.2421    1.2336 H   0  0  0  0  0  0  0  0  0  0  0  0
    6.5036   -1.0244    0.2818 H   0  0  0  0  0  0  0  0  0  0  0  0
    4.6303   -1.6515    1.5172 H   0  0  0  0  0  0  0  0  0  0  0  0
    5.1719    0.3080   -1.9562 H   0  0  0  0  0  0  0  0  0  0  0  0
    6.2965   -1.0730   -2.2986 H   0  0  0  0  0  0  0  0  0  0  0  0
    5.9425   -0.2528   -4.4798 H   0  0  0  0  0  0  0  0  0  0  0  0
    4.2760    0.3369   -4.0874 H   0  0  0  0  0  0  0  0  0  0  0  0
    2.4965   -2.1001   -2.9269 H   0  0  0  0  0  0  0  0  0  0  0  0
    3.6652   -3.4820   -2.7698 H   0  0  0  0  0  0  0  0  0  0  0  0
    3.6813    0.5736    1.8108 H   0  0  0  0  0  0  0  0  0  0  0  0
    3.8483    1.7391   -0.2427 H   0  0  0  0  0  0  0  0  0  0  0  0
    2.9804    0.4731   -1.1786 H   0  0  0  0  0  0  0  0  0  0  0  0
    1.7318    2.1935    1.0234 H   0  0  0  0  0  0  0  0  0  0  0  0
    1.5511    2.4699   -0.7371 H   0  0  0  0  0  0  0  0  0  0  0  0
    0.1751    0.6393   -1.0841 H   0  0  0  0  0  0  0  0  0  0  0  0
   -0.3649    1.4850    1.7872 H   0  0  0  0  0  0  0  0  0  0  0  0
   -2.7171    2.0126    2.1630 H   0  0  0  0  0  0  0  0  0  0  0  0
   -4.0259   -1.0062    0.4894 H   0  0  0  0  0  0  0  0  0  0  0  0
   -6.4039   -1.5792    0.3173 H   0  0  0  0  0  0  0  0  0  0  0  0
   -7.4431    2.2587    1.9870 H   0  0  0  0  0  0  0  0  0  0  0  0
   -5.0745    2.8388    2.1338 H   0  0  0  0  0  0  0  0  0  0  0  0
    0.0456   -1.3147    0.7725 H   0  0  0  0  0  0  0  0  0  0  0  0
    1.2816   -1.3088   -0.5157 H   0  0  0  0  0  0  0  0  0  0  0  0
    2.2582   -1.8054    1.7391 H   0  0  0  0  0  0  0  0  0  0  0  0
    1.6557   -0.2459    2.3450 H   0  0  0  0  0  0  0  0  0  0  0  0
  1  2  1  0
  2  3  1  0
  3  4  2  0
  3  5  1  0
  5  6  1  0
  6  7  1  0
  7  8  1  0
  8  9  1  0
  2 10  1  0
 10 11  1  0
 11 12  1  0
 12 13  1  0
 13 14  1  0
 14 15  1  0
 15 16  2  0
 15 17  1  0
 17 18  1  0
 18 19  2  0
 19 20  1  0
 20 21  2  0
 21 22  1  0
 22 23  1  0
 23 24  1  0
 23 25  1  0
 23 26  1  0
 21 27  1  0
 27 28  2  0
 13 29  1  0
 29 30  1  0
  9  5  1  0
 30 10  1  0
 28 18  1  0
  1 31  1  0
  1 32  1  0
  2 33  1  1
  6 34  1  0
  6 35  1  0
  7 36  1  0
  7 37  1  0
  9 38  1  0
  9 39  1  0
 10 40  1  1
 11 41  1  0
 11 42  1  0
 12 43  1  0
 12 44  1  0
 13 45  1  6
 14 46  1  0
 17 47  1  0
 19 48  1  0
 20 49  1  0
 27 50  1  0
 28 51  1  0
 29 52  1  0
 29 53  1  0
 30 54  1  0
 30 55  1  0
M  END
$$$$
