
     RDKit          3D

 41 41  0  0  0  0  0  0  0  0999 V2000
    4.6932   -1.3256    2.3331 C   0  0  0  0  0  0  0  0  0  0  0  0
    3.3342   -0.6651    2.1046 C   0  0  0  0  0  0  0  0  0  0  0  0
    2.3187   -1.1818    3.1284 C   0  0  0  0  0  0  0  0  0  0  0  0
    2.8936   -0.9846    0.7957 O   0  0  0  0  0  0  0  0  0  0  0  0
    2.2349    0.1168    0.2050 C   0  0  0  0  0  0  0  0  0  0  0  0
    1.6202   -0.3238   -1.1222 C   0  0  0  0  0  0  0  0  0  0  0  0
    0.8815    0.8425   -1.8031 C   0  0  0  0  0  0  0  0  0  0  0  0
    0.2351    0.4416   -3.0654 N   0  0  0  0  0  0  0  0  0  0  0  0
   -1.0520   -0.2403   -2.8644 C   0  0  0  0  0  0  0  0  0  0  0  0
   -2.1156    0.7406   -2.4469 C   0  0  0  0  0  0  0  0  0  0  0  0
   -2.5065    1.5924   -3.2906 O   0  0  0  0  0  0  0  0  0  0  0  0
   -2.6670    0.7586   -1.1137 N   0  0  0  0  0  0  0  0  0  0  0  0
   -3.5472    1.8231   -0.6578 C   0  0  0  0  0  0  0  0  0  0  0  0
   -3.9500    1.4508    0.7646 C   0  0  1  0  0  0  0  0  0  0  0  0
   -5.2167    0.8893    0.7632 F   0  0  0  0  0  0  0  0  0  0  0  0
   -2.9286    0.4120    1.2204 C   0  0  0  0  0  0  0  0  0  0  0  0
   -2.3660   -0.2036   -0.0605 C   0  0  1  0  0  0  0  0  0  0  0  0
   -3.0157   -1.4913   -0.3558 C   0  0  0  0  0  0  0  0  0  0  0  0
   -3.5259   -2.5034   -0.5890 N   0  0  0  0  0  0  0  0  0  0  0  0
    4.6160   -2.4279    2.2148 H   0  0  0  0  0  0  0  0  0  0  0  0
    5.0698   -1.0948    3.3526 H   0  0  0  0  0  0  0  0  0  0  0  0
    5.4256   -0.9393    1.5928 H   0  0  0  0  0  0  0  0  0  0  0  0
    3.4766    0.4317    2.2661 H   0  0  0  0  0  0  0  0  0  0  0  0
    1.3400   -0.6783    2.9837 H   0  0  0  0  0  0  0  0  0  0  0  0
    2.1740   -2.2774    3.0128 H   0  0  0  0  0  0  0  0  0  0  0  0
    2.6691   -0.9687    4.1609 H   0  0  0  0  0  0  0  0  0  0  0  0
    2.9647    0.9354    0.0105 H   0  0  0  0  0  0  0  0  0  0  0  0
    1.4200    0.4943    0.8651 H   0  0  0  0  0  0  0  0  0  0  0  0
    2.4272   -0.6927   -1.7923 H   0  0  0  0  0  0  0  0  0  0  0  0
    0.9229   -1.1635   -0.9238 H   0  0  0  0  0  0  0  0  0  0  0  0
    1.6213    1.6383   -2.0359 H   0  0  0  0  0  0  0  0  0  0  0  0
    0.1432    1.2948   -1.1062 H   0  0  0  0  0  0  0  0  0  0  0  0
    0.8741   -0.1954   -3.5969 H   0  0  0  0  0  0  0  0  0  0  0  0
   -0.9555   -1.0875   -2.1590 H   0  0  0  0  0  0  0  0  0  0  0  0
   -1.3710   -0.6875   -3.8310 H   0  0  0  0  0  0  0  0  0  0  0  0
   -4.4390    1.8994   -1.3173 H   0  0  0  0  0  0  0  0  0  0  0  0
   -2.9947    2.7879   -0.6622 H   0  0  0  0  0  0  0  0  0  0  0  0
   -3.9456    2.3400    1.4317 H   0  0  0  0  0  0  0  0  0  0  0  0
   -3.3803   -0.3376    1.9083 H   0  0  0  0  0  0  0  0  0  0  0  0
   -2.1075    0.9303    1.7639 H   0  0  0  0  0  0  0  0  0  0  0  0
   -1.2710   -0.3495    0.0465 H   0  0  0  0  0  0  0  0  0  0  0  0
  1  2  1  0
  2  3  1  0
  2  4  1  0
  4  5  1  0
  5  6  1  0
  6  7  1  0
  7  8  1  0
  8  9  1  0
  9 10  1  0
 10 11  2  0
 10 12  1  0
 12 13  1  0
 13 14  1  0
 14 15  1  0
 14 16  1  0
 16 17  1  0
 17 18  1  0
 18 19  3  0
 17 12  1  0
  1 20  1  0
  1 21  1  0
  1 22  1  0
  2 23  1  0
  3 24  1  0
  3 25  1  0
  3 26  1  0
  5 27  1  0
  5 28  1  0
  6 29  1  0
  6 30  1  0
  7 31  1  0
  7 32  1  0
  8 33  1  0
  9 34  1  0
  9 35  1  0
 13 36  1  0
 13 37  1  0
 14 38  1  1
 16 39  1  0
 16 40  1  0
 17 41  1  1
M  END
$$$$
