
     RDKit          3D

 59 63  0  0  0  0  0  0  0  0999 V2000
   -6.9218   -1.2620   -2.7395 C   0  0  0  0  0  0  0  0  0  0  0  0
   -5.6192   -1.0113   -2.0571 C   0  0  0  0  0  0  0  0  0  0  0  0
   -4.5325   -1.8668   -2.0549 C   0  0  0  0  0  0  0  0  0  0  0  0
   -3.6265   -1.2334   -1.2337 C   0  0  0  0  0  0  0  0  0  0  0  0
   -2.3544   -1.7639   -0.8459 N   0  0  0  0  0  0  0  0  0  0  0  0
   -1.3022   -1.9491   -1.8456 C   0  0  0  0  0  0  0  0  0  0  0  0
    0.0746   -1.5427   -1.2731 C   0  0  0  0  0  0  0  0  0  0  0  0
    0.0658   -1.3866    0.2057 N   0  0  0  0  0  0  0  0  0  0  0  0
    1.4451   -1.3089    0.7534 C   0  0  2  0  0  0  0  0  0  0  0  0
    1.4580   -0.9304    2.2402 C   0  0  0  0  0  0  0  0  0  0  0  0
    2.6229   -0.0770    2.4988 N   0  0  0  0  0  0  0  0  0  0  0  0
    3.2651    0.1745    1.2021 C   0  0  2  0  0  0  0  0  0  0  0  0
    3.7497    1.6050    1.0460 C   0  0  0  0  0  0  0  0  0  0  0  0
    2.9917    2.5512    1.3971 O   0  0  0  0  0  0  0  0  0  0  0  0
    5.0243    1.9121    0.4451 N   0  0  0  0  0  0  0  0  0  0  0  0
    5.8632    0.9134   -0.2044 C   0  0  0  0  0  0  0  0  0  0  0  0
    6.9338    1.6441   -0.9970 C   0  0  0  0  0  0  0  0  0  0  0  0
    7.2443    3.2366   -0.1871 S   0  0  0  0  0  0  0  0  0  0  0  0
    5.5411    3.2738    0.4391 C   0  0  0  0  0  0  0  0  0  0  0  0
    2.2623   -0.1925    0.1227 C   0  0  0  0  0  0  0  0  0  0  0  0
   -0.6959   -2.4966    0.8179 C   0  0  0  0  0  0  0  0  0  0  0  0
   -2.1826   -2.3151    0.5007 C   0  0  0  0  0  0  0  0  0  0  0  0
   -4.1542   -0.0775   -0.7760 N   0  0  0  0  0  0  0  0  0  0  0  0
   -3.5151    0.9058    0.0586 C   0  0  0  0  0  0  0  0  0  0  0  0
   -4.2688    1.9118    0.6848 C   0  0  0  0  0  0  0  0  0  0  0  0
   -3.6227    2.8588    1.4826 C   0  0  0  0  0  0  0  0  0  0  0  0
   -2.2379    2.8024    1.6468 C   0  0  0  0  0  0  0  0  0  0  0  0
   -1.5160    1.7957    1.0043 C   0  0  0  0  0  0  0  0  0  0  0  0
   -2.1630    0.8837    0.2316 N   0  0  0  0  0  0  0  0  0  0  0  0
   -5.3757    0.0581   -1.2711 N   0  0  0  0  0  0  0  0  0  0  0  0
   -7.5652   -1.8898   -2.0888 H   0  0  0  0  0  0  0  0  0  0  0  0
   -7.4356   -0.2987   -2.9411 H   0  0  0  0  0  0  0  0  0  0  0  0
   -6.7521   -1.7866   -3.7033 H   0  0  0  0  0  0  0  0  0  0  0  0
   -4.4305   -2.8234   -2.5502 H   0  0  0  0  0  0  0  0  0  0  0  0
   -1.2803   -3.0198   -2.1440 H   0  0  0  0  0  0  0  0  0  0  0  0
   -1.5196   -1.3496   -2.7576 H   0  0  0  0  0  0  0  0  0  0  0  0
    0.3557   -0.5727   -1.7364 H   0  0  0  0  0  0  0  0  0  0  0  0
    0.8308   -2.2984   -1.5860 H   0  0  0  0  0  0  0  0  0  0  0  0
    1.9801   -2.2777    0.6131 H   0  0  0  0  0  0  0  0  0  0  0  0
    0.5214   -0.3879    2.5082 H   0  0  0  0  0  0  0  0  0  0  0  0
    1.5280   -1.8430    2.8696 H   0  0  0  0  0  0  0  0  0  0  0  0
    2.2849    0.8101    2.9403 H   0  0  0  0  0  0  0  0  0  0  0  0
    4.1249   -0.5245    1.1319 H   0  0  0  0  0  0  0  0  0  0  0  0
    5.2590    0.2848   -0.8938 H   0  0  0  0  0  0  0  0  0  0  0  0
    6.3372    0.2714    0.5692 H   0  0  0  0  0  0  0  0  0  0  0  0
    6.5719    1.8392   -2.0293 H   0  0  0  0  0  0  0  0  0  0  0  0
    7.8687    1.0469   -1.0446 H   0  0  0  0  0  0  0  0  0  0  0  0
    5.5459    3.6860    1.4702 H   0  0  0  0  0  0  0  0  0  0  0  0
    4.9149    3.9119   -0.2197 H   0  0  0  0  0  0  0  0  0  0  0  0
    2.7730   -0.5312   -0.8051 H   0  0  0  0  0  0  0  0  0  0  0  0
    1.6051    0.6776   -0.1043 H   0  0  0  0  0  0  0  0  0  0  0  0
   -0.3392   -3.4781    0.4291 H   0  0  0  0  0  0  0  0  0  0  0  0
   -0.5869   -2.5152    1.9226 H   0  0  0  0  0  0  0  0  0  0  0  0
   -2.7110   -3.2894    0.5780 H   0  0  0  0  0  0  0  0  0  0  0  0
   -2.6249   -1.6198    1.2468 H   0  0  0  0  0  0  0  0  0  0  0  0
   -5.3434    1.9589    0.5638 H   0  0  0  0  0  0  0  0  0  0  0  0
   -4.1951    3.6353    1.9734 H   0  0  0  0  0  0  0  0  0  0  0  0
   -1.7292    3.5318    2.2637 H   0  0  0  0  0  0  0  0  0  0  0  0
   -0.4418    1.7391    1.1188 H   0  0  0  0  0  0  0  0  0  0  0  0
  1  2  1  0
  2  3  1  0
  3  4  2  0
  4  5  1  0
  5  6  1  0
  6  7  1  0
  7  8  1  0
  8  9  1  0
  9 10  1  0
 10 11  1  0
 11 12  1  0
 12 13  1  0
 13 14  2  0
 13 15  1  0
 15 16  1  0
 16 17  1  0
 17 18  1  0
 18 19  1  0
 12 20  1  0
  8 21  1  0
 21 22  1  0
  4 23  1  0
 23 24  1  0
 24 25  2  0
 25 26  1  0
 26 27  2  0
 27 28  1  0
 28 29  2  0
 23 30  1  0
 30  2  2  0
 22  5  1  0
 29 24  1  0
 20  9  1  0
 19 15  1  0
  1 31  1  0
  1 32  1  0
  1 33  1  0
  3 34  1  0
  6 35  1  0
  6 36  1  0
  7 37  1  0
  7 38  1  0
  9 39  1  1
 10 40  1  0
 10 41  1  0
 11 42  1  0
 12 43  1  6
 16 44  1  0
 16 45  1  0
 17 46  1  0
 17 47  1  0
 19 48  1  0
 19 49  1  0
 20 50  1  0
 20 51  1  0
 21 52  1  0
 21 53  1  0
 22 54  1  0
 22 55  1  0
 25 56  1  0
 26 57  1  0
 27 58  1  0
 28 59  1  0
M  END
$$$$
